sad/pglib_opf_case2316_sdet__sad.m
%%%%%%%%%%%%%%%%%%%%%%%%%%%%%%%%%%%%%%%%%%%%%%%%%%%%%%%%%%%%%%%%%%%%%%%%%%%
%%%%                                                                  %%%%%
%%%%    IEEE PES Power Grid Library - Optimal Power Flow - v18.08     %%%%%
%%%%          (https://github.com/power-grid-lib/pglib-opf)           %%%%%
%%%%             Benchmark Group - Small Angle Difference             %%%%%
%%%%                        08 - August - 2018                        %%%%%
%%%%                                                                  %%%%%
%%%%%%%%%%%%%%%%%%%%%%%%%%%%%%%%%%%%%%%%%%%%%%%%%%%%%%%%%%%%%%%%%%%%%%%%%%%
function mpc = pglib_opf_case2316_sdet__sad
mpc.version = '2';
mpc.baseMVA = 100.0;

%% bus data
%	bus_i	type	Pd	Qd	Gs	Bs	area	Vm	Va	baseKV	zone	Vmax	Vmin
mpc.bus = [
	1	 1	 0.0	 0.0	 0.0	 0.0	 1	    1.00000	    0.00000	 345.0	 1	    1.10000	    0.90000;
	2	 1	 0.0	 0.0	 0.0	 -7.13	 1	    1.00000	    0.00000	 345.0	 1	    1.10000	    0.90000;
	3	 1	 2.78	 1.91	 0.0	 0.0	 1	    1.00000	    0.00000	 345.0	 1	    1.10000	    0.90000;
	4	 1	 0.0	 0.0	 0.0	 -9.6	 1	    1.00000	    0.00000	 345.0	 1	    1.10000	    0.90000;
	5	 1	 0.0	 0.0	 0.0	 0.0	 1	    1.00000	    0.00000	 345.0	 1	    1.10000	    0.90000;
	6	 1	 0.0	 0.0	 0.0	 41.99	 1	    1.00000	    0.00000	 345.0	 1	    1.10000	    0.90000;
	7	 1	 0.0	 0.0	 0.0	 0.0	 1	    1.00000	    0.00000	 345.0	 1	    1.10000	    0.90000;
	8	 1	 0.0	 0.0	 0.0	 0.0	 1	    1.00000	    0.00000	 345.0	 1	    1.10000	    0.90000;
	9	 2	 221.28	 -103.64	 0.0	 0.0	 1	    1.00000	    0.00000	 345.0	 1	    1.10000	    0.90000;
	10	 2	 41.52	 73.01	 0.0	 -0.23	 1	    1.00000	    0.00000	 345.0	 1	    1.10000	    0.90000;
	11	 2	 12.51	 7.51	 0.0	 -0.24	 1	    1.00000	    0.00000	 138.0	 1	    1.10000	    0.90000;
	12	 2	 20.99	 10.69	 0.0	 -0.53	 1	    1.00000	    0.00000	 138.0	 1	    1.10000	    0.90000;
	13	 1	 6.33	 2.49	 0.0	 0.0	 1	    1.00000	    0.00000	 138.0	 1	    1.10000	    0.90000;
	14	 1	 20.44	 7.84	 0.0	 0.0	 1	    1.00000	    0.00000	 138.0	 1	    1.10000	    0.90000;
	15	 1	 0.43	 0.1	 0.0	 0.0	 1	    1.00000	    0.00000	 138.0	 1	    1.10000	    0.90000;
	16	 1	 0.0	 0.0	 0.0	 0.0	 1	    1.00000	    0.00000	 138.0	 1	    1.10000	    0.90000;
	17	 1	 10.68	 4.62	 0.0	 0.0	 1	    1.00000	    0.00000	 138.0	 1	    1.10000	    0.90000;
	18	 1	 2.46	 0.8	 0.0	 0.0	 1	    1.00000	    0.00000	 138.0	 1	    1.10000	    0.90000;
	19	 1	 1.5	 0.5	 0.0	 0.0	 1	    1.00000	    0.00000	 138.0	 1	    1.10000	    0.90000;
	20	 2	 20.54	 -35.59	 0.0	 0.0	 1	    1.00000	    0.00000	 138.0	 1	    1.10000	    0.90000;
	21	 1	 14.57	 3.1	 0.0	 0.0	 1	    1.00000	    0.00000	 138.0	 1	    1.10000	    0.90000;
	22	 1	 0.0	 0.0	 0.0	 0.0	 1	    1.00000	    0.00000	 138.0	 1	    1.10000	    0.90000;
	23	 1	 42.51	 -12.87	 0.0	 0.0	 1	    1.00000	    0.00000	 138.0	 1	    1.10000	    0.90000;
	24	 2	 8.54	 5.02	 0.0	 0.0	 1	    1.00000	    0.00000	 138.0	 1	    1.10000	    0.90000;
	25	 2	 0.0	 -0.4	 0.0	 0.0	 1	    1.00000	    0.00000	 138.0	 1	    1.10000	    0.90000;
	26	 2	 35.41	 12.61	 0.0	 -0.32	 1	    1.00000	    0.00000	 138.0	 1	    1.10000	    0.90000;
	27	 1	 4.49	 1.5	 0.0	 0.0	 1	    1.00000	    0.00000	 138.0	 1	    1.10000	    0.90000;
	28	 1	 0.0	 0.0	 0.0	 0.0	 1	    1.00000	    0.00000	 138.0	 1	    1.10000	    0.90000;
	29	 1	 9.51	 3.71	 0.0	 0.0	 1	    1.00000	    0.00000	 138.0	 1	    1.10000	    0.90000;
	30	 1	 0.0	 0.0	 0.0	 0.0	 1	    1.00000	    0.00000	 138.0	 1	    1.10000	    0.90000;
	31	 1	 4.91	 1.71	 0.0	 0.0	 1	    1.00000	    0.00000	 138.0	 1	    1.10000	    0.90000;
	32	 2	 7.05	 3.51	 0.0	 -1.31	 1	    1.00000	    0.00000	 138.0	 1	    1.10000	    0.90000;
	33	 1	 7.05	 4.62	 0.0	 0.0	 1	    1.00000	    0.00000	 138.0	 1	    1.10000	    0.90000;
	34	 1	 0.0	 0.0	 0.0	 0.0	 1	    1.00000	    0.00000	 138.0	 1	    1.10000	    0.90000;
	35	 1	 1.6	 0.5	 0.0	 0.0	 1	    1.00000	    0.00000	 138.0	 1	    1.10000	    0.90000;
	36	 1	 0.0	 0.0	 0.0	 0.0	 1	    1.00000	    0.00000	 138.0	 1	    1.10000	    0.90000;
	37	 1	 0.0	 0.0	 0.0	 0.0	 1	    1.00000	    0.00000	 138.0	 1	    1.10000	    0.90000;
	38	 1	 0.0	 0.0	 0.0	 0.0	 1	    1.00000	    0.00000	 138.0	 1	    1.10000	    0.90000;
	39	 1	 4.71	 0.48	 0.0	 -0.49	 1	    1.00000	    0.00000	 138.0	 1	    1.10000	    0.90000;
	40	 1	 0.0	 0.0	 0.0	 0.0	 1	    1.00000	    0.00000	 138.0	 1	    1.10000	    0.90000;
	41	 1	 1.71	 0.6	 0.0	 0.0	 1	    1.00000	    0.00000	 138.0	 1	    1.10000	    0.90000;
	42	 1	 6.09	 0.9	 0.0	 0.0	 1	    1.00000	    0.00000	 138.0	 1	    1.10000	    0.90000;
	43	 1	 0.0	 0.0	 0.0	 3.71	 1	    1.00000	    0.00000	 138.0	 1	    1.10000	    0.90000;
	44	 1	 15.85	 8.31	 0.0	 0.0	 1	    1.00000	    0.00000	 138.0	 1	    1.10000	    0.90000;
	45	 1	 4.95	 2.28	 0.0	 0.0	 1	    1.00000	    0.00000	 138.0	 1	    1.10000	    0.90000;
	46	 2	 37.19	 15.6	 0.0	 -0.35	 1	    1.00000	    0.00000	 138.0	 1	    1.10000	    0.90000;
	47	 1	 11.71	 4.19	 0.0	 0.0	 1	    1.00000	    0.00000	 138.0	 1	    1.10000	    0.90000;
	48	 1	 0.0	 0.15	 0.0	 0.0	 1	    1.00000	    0.00000	 138.0	 1	    1.10000	    0.90000;
	49	 1	 17.92	 4.21	 0.0	 -4.15	 1	    1.00000	    0.00000	 138.0	 1	    1.10000	    0.90000;
	50	 1	 0.0	 0.0	 0.0	 0.0	 1	    1.00000	    0.00000	 138.0	 1	    1.10000	    0.90000;
	51	 1	 0.0	 0.0	 0.0	 0.0	 1	    1.00000	    0.00000	 138.0	 1	    1.10000	    0.90000;
	52	 1	 18.59	 5.92	 0.0	 0.0	 1	    1.00000	    0.00000	 138.0	 1	    1.10000	    0.90000;
	53	 2	 7.92	 3.22	 0.0	 -61.98	 1	    1.00000	    0.00000	 138.0	 1	    1.10000	    0.90000;
	54	 1	 3.85	 2.11	 0.0	 0.0	 1	    1.00000	    0.00000	 138.0	 1	    1.10000	    0.90000;
	55	 1	 0.32	 0.0	 0.0	 0.0	 1	    1.00000	    0.00000	 138.0	 1	    1.10000	    0.90000;
	56	 1	 7.07	 2.62	 0.0	 0.0	 1	    1.00000	    0.00000	 138.0	 1	    1.10000	    0.90000;
	57	 1	 4.17	 1.49	 0.0	 0.0	 1	    1.00000	    0.00000	 138.0	 1	    1.10000	    0.90000;
	58	 1	 49.85	 -5.88	 0.0	 0.0	 1	    1.00000	    0.00000	 138.0	 1	    1.10000	    0.90000;
	59	 1	 6.63	 2.23	 0.0	 0.0	 1	    1.00000	    0.00000	 138.0	 1	    1.10000	    0.90000;
	60	 1	 1.5	 0.4	 0.0	 0.0	 1	    1.00000	    0.00000	 138.0	 1	    1.10000	    0.90000;
	61	 1	 8.98	 24.27	 0.0	 0.0	 1	    1.00000	    0.00000	 138.0	 1	    1.10000	    0.90000;
	62	 1	 0.0	 0.0	 0.0	 0.0	 1	    1.00000	    0.00000	 138.0	 1	    1.10000	    0.90000;
	63	 1	 4.7	 1.55	 0.0	 0.0	 1	    1.00000	    0.00000	 138.0	 1	    1.10000	    0.90000;
	64	 1	 2.35	 0.8	 0.0	 0.0	 1	    1.00000	    0.00000	 138.0	 1	    1.10000	    0.90000;
	65	 1	 2.14	 0.7	 0.0	 0.0	 1	    1.00000	    0.00000	 138.0	 1	    1.10000	    0.90000;
	66	 1	 7.39	 2.73	 0.0	 0.0	 1	    1.00000	    0.00000	 138.0	 1	    1.10000	    0.90000;
	67	 2	 9.65	 3.73	 0.0	 3.71	 1	    1.00000	    0.00000	 138.0	 1	    1.10000	    0.90000;
	68	 2	 17.2	 33.81	 0.0	 0.0	 1	    1.00000	    0.00000	 138.0	 1	    1.10000	    0.90000;
	69	 1	 0.0	 0.0	 0.0	 -0.29	 1	    1.00000	    0.00000	 138.0	 1	    1.10000	    0.90000;
	70	 1	 25.0	 7.0	 0.0	 0.0	 1	    1.00000	    0.00000	 138.0	 1	    1.10000	    0.90000;
	71	 1	 0.0	 0.0	 0.0	 0.0	 2	    1.00000	    0.00000	 345.0	 2	    1.10000	    0.90000;
	72	 1	 0.0	 0.0	 0.0	 0.0	 2	    1.00000	    0.00000	 345.0	 2	    1.10000	    0.90000;
	73	 1	 0.0	 0.0	 0.0	 0.0	 2	    1.00000	    0.00000	 345.0	 2	    1.10000	    0.90000;
	74	 1	 0.0	 0.0	 0.0	 0.0	 2	    1.00000	    0.00000	 345.0	 2	    1.10000	    0.90000;
	75	 2	 12.0	 30.0	 0.0	 0.0	 2	    1.00000	    0.00000	 345.0	 2	    1.10000	    0.90000;
	76	 2	 19.91	 36.57	 0.0	 0.0	 2	    1.00000	    0.00000	 345.0	 2	    1.10000	    0.90000;
	77	 2	 12.0	 30.0	 0.0	 0.0	 2	    1.00000	    0.00000	 500.0	 2	    1.10000	    0.90000;
	78	 2	 0.0	 0.0	 0.0	 14.58	 2	    1.00000	    0.00000	 345.0	 2	    1.10000	    0.90000;
	79	 1	 0.0	 0.0	 0.0	 0.0	 2	    1.00000	    0.00000	 345.0	 2	    1.10000	    0.90000;
	80	 1	 0.0	 0.0	 0.0	 0.0	 2	    1.00000	    0.00000	 345.0	 2	    1.10000	    0.90000;
	81	 1	 0.0	 0.0	 0.0	 0.0	 2	    1.00000	    0.00000	 345.0	 2	    1.10000	    0.90000;
	82	 1	 0.0	 0.0	 0.0	 0.0	 2	    1.00000	    0.00000	 345.0	 2	    1.10000	    0.90000;
	83	 1	 11.45	 2.64	 0.0	 0.0	 2	    1.00000	    0.00000	 138.0	 2	    1.10000	    0.90000;
	84	 1	 25.91	 6.42	 0.0	 0.0	 2	    1.00000	    0.00000	 138.0	 2	    1.10000	    0.90000;
	85	 1	 0.0	 0.0	 0.0	 0.0	 2	    1.00000	    0.00000	 138.0	 2	    1.10000	    0.90000;
	86	 1	 6.04	 2.42	 0.0	 6.32	 2	    1.00000	    0.00000	 138.0	 2	    1.10000	    0.90000;
	87	 1	 3.02	 1.27	 0.0	 0.0	 2	    1.00000	    0.00000	 138.0	 2	    1.10000	    0.90000;
	88	 1	 6.63	 0.64	 0.0	 0.0	 2	    1.00000	    0.00000	 138.0	 2	    1.10000	    0.90000;
	89	 1	 12.49	 4.85	 0.0	 0.0	 2	    1.00000	    0.00000	 138.0	 2	    1.10000	    0.90000;
	90	 2	 3.63	 0.53	 0.0	 -0.02	 2	    1.00000	    0.00000	 138.0	 2	    1.10000	    0.90000;
	91	 1	 3.54	 1.16	 0.0	 0.0	 2	    1.00000	    0.00000	 138.0	 2	    1.10000	    0.90000;
	92	 2	 19.22	 32.9	 0.0	 0.0	 2	    1.00000	    0.00000	 138.0	 2	    1.10000	    0.90000;
	93	 1	 0.0	 0.0	 0.0	 0.0	 2	    1.00000	    0.00000	 138.0	 2	    1.10000	    0.90000;
	94	 1	 2.29	 0.84	 0.0	 0.0	 2	    1.00000	    0.00000	 138.0	 2	    1.10000	    0.90000;
	95	 2	 4.69	 1.91	 0.0	 3.0	 2	    1.00000	    0.00000	 138.0	 2	    1.10000	    0.90000;
	96	 2	 0.1	 -0.79	 0.0	 0.0	 2	    1.00000	    0.00000	 138.0	 2	    1.10000	    0.90000;
	97	 1	 5.57	 1.97	 0.0	 0.0	 2	    1.00000	    0.00000	 138.0	 2	    1.10000	    0.90000;
	98	 2	 20.23	 25.52	 0.0	 0.0	 2	    1.00000	    0.00000	 138.0	 2	    1.10000	    0.90000;
	99	 2	 12.57	 9.27	 0.0	 0.0	 2	    1.00000	    0.00000	 138.0	 2	    1.10000	    0.90000;
	100	 1	 12.91	 4.74	 0.0	 0.0	 2	    1.00000	    0.00000	 138.0	 2	    1.10000	    0.90000;
	101	 1	 9.37	 3.79	 0.0	 0.0	 2	    1.00000	    0.00000	 138.0	 2	    1.10000	    0.90000;
	102	 1	 14.16	 5.69	 0.0	 0.0	 2	    1.00000	    0.00000	 138.0	 2	    1.10000	    0.90000;
	103	 1	 11.4	 3.74	 0.0	 0.0	 2	    1.00000	    0.00000	 138.0	 2	    1.10000	    0.90000;
	104	 1	 10.41	 3.8	 0.0	 0.0	 2	    1.00000	    0.00000	 138.0	 2	    1.10000	    0.90000;
	105	 1	 0.0	 0.0	 0.0	 0.42	 2	    1.00000	    0.00000	 138.0	 2	    1.10000	    0.90000;
	106	 1	 0.0	 0.0	 0.0	 0.0	 2	    1.00000	    0.00000	 138.0	 2	    1.10000	    0.90000;
	107	 1	 5.49	 0.64	 0.0	 0.0	 2	    1.00000	    0.00000	 138.0	 2	    1.10000	    0.90000;
	108	 1	 6.87	 2.0	 0.0	 0.0	 2	    1.00000	    0.00000	 138.0	 2	    1.10000	    0.90000;
	109	 1	 5.62	 2.32	 0.0	 0.0	 2	    1.00000	    0.00000	 138.0	 2	    1.10000	    0.90000;
	110	 1	 4.16	 1.69	 0.0	 0.0	 2	    1.00000	    0.00000	 138.0	 2	    1.10000	    0.90000;
	111	 1	 1.46	 0.53	 0.0	 0.0	 2	    1.00000	    0.00000	 138.0	 2	    1.10000	    0.90000;
	112	 2	 1.79	 0.76	 0.0	 0.42	 2	    1.00000	    0.00000	 138.0	 2	    1.10000	    0.90000;
	113	 1	 1.67	 0.74	 0.0	 0.0	 2	    1.00000	    0.00000	 138.0	 2	    1.10000	    0.90000;
	114	 1	 3.11	 0.86	 0.0	 0.0	 2	    1.00000	    0.00000	 138.0	 2	    1.10000	    0.90000;
	115	 1	 4.77	 0.54	 0.0	 0.0	 2	    1.00000	    0.00000	 138.0	 2	    1.10000	    0.90000;
	116	 1	 7.08	 1.79	 0.0	 0.0	 2	    1.00000	    0.00000	 138.0	 2	    1.10000	    0.90000;
	117	 1	 11.45	 4.64	 0.0	 6.66	 2	    1.00000	    0.00000	 138.0	 2	    1.10000	    0.90000;
	118	 1	 8.43	 3.37	 0.0	 0.0	 2	    1.00000	    0.00000	 138.0	 2	    1.10000	    0.90000;
	119	 1	 6.77	 -1.7	 0.0	 0.0	 2	    1.00000	    0.00000	 138.0	 2	    1.10000	    0.90000;
	120	 2	 21.87	 12.66	 0.0	 0.0	 2	    1.00000	    0.00000	 138.0	 2	    1.10000	    0.90000;
	121	 1	 24.98	 23.19	 0.0	 0.0	 2	    1.00000	    0.00000	 138.0	 2	    1.10000	    0.90000;
	122	 1	 14.57	 4.22	 0.0	 0.0	 2	    1.00000	    0.00000	 138.0	 2	    1.10000	    0.90000;
	123	 1	 16.13	 4.74	 0.0	 0.0	 2	    1.00000	    0.00000	 138.0	 2	    1.10000	    0.90000;
	124	 2	 5.34	 1.77	 0.0	 0.0	 2	    1.00000	    0.00000	 138.0	 2	    1.10000	    0.90000;
	125	 2	 5.67	 5.84	 0.0	 0.0	 2	    1.00000	    0.00000	 138.0	 2	    1.10000	    0.90000;
	126	 1	 7.7	 3.16	 0.0	 0.0	 2	    1.00000	    0.00000	 138.0	 2	    1.10000	    0.90000;
	127	 2	 0.0	 0.0	 0.0	 0.0	 2	    1.00000	    0.00000	 138.0	 2	    1.10000	    0.90000;
	128	 2	 7.4	 2.54	 0.0	 0.0	 2	    1.00000	    0.00000	 138.0	 2	    1.10000	    0.90000;
	129	 1	 1.2	 0.47	 0.0	 0.0	 2	    1.00000	    0.00000	 138.0	 2	    1.10000	    0.90000;
	130	 1	 5.72	 2.32	 0.0	 0.0	 2	    1.00000	    0.00000	 138.0	 2	    1.10000	    0.90000;
	131	 1	 5.83	 2.32	 0.0	 0.0	 2	    1.00000	    0.00000	 138.0	 2	    1.10000	    0.90000;
	132	 1	 6.25	 1.74	 0.0	 0.0	 2	    1.00000	    0.00000	 138.0	 2	    1.10000	    0.90000;
	133	 1	 6.25	 1.74	 0.0	 0.0	 2	    1.00000	    0.00000	 138.0	 2	    1.10000	    0.90000;
	134	 1	 0.63	 0.21	 0.0	 0.0	 2	    1.00000	    0.00000	 138.0	 2	    1.10000	    0.90000;
	135	 2	 13.13	 5.28	 0.0	 0.0	 2	    1.00000	    0.00000	 138.0	 2	    1.10000	    0.90000;
	136	 2	 9.37	 3.61	 0.0	 0.0	 2	    1.00000	    0.00000	 138.0	 2	    1.10000	    0.90000;
	137	 1	 4.68	 1.9	 0.0	 0.0	 2	    1.00000	    0.00000	 138.0	 2	    1.10000	    0.90000;
	138	 2	 6.46	 2.54	 0.0	 4.2	 2	    1.00000	    0.00000	 138.0	 2	    1.10000	    0.90000;
	139	 1	 21.76	 6.1	 0.0	 0.0	 2	    1.00000	    0.00000	 138.0	 2	    1.10000	    0.90000;
	140	 1	 2.08	 0.84	 0.0	 0.0	 2	    1.00000	    0.00000	 138.0	 2	    1.10000	    0.90000;
	141	 1	 2.71	 1.05	 0.0	 0.0	 2	    1.00000	    0.00000	 138.0	 2	    1.10000	    0.90000;
	142	 1	 4.06	 0.53	 0.0	 0.0	 2	    1.00000	    0.00000	 138.0	 2	    1.10000	    0.90000;
	143	 1	 0.0	 0.0	 0.0	 0.0	 2	    1.00000	    0.00000	 138.0	 2	    1.10000	    0.90000;
	144	 1	 0.0	 0.0	 0.0	 0.0	 2	    1.00000	    0.00000	 138.0	 2	    1.10000	    0.90000;
	145	 1	 0.0	 0.0	 0.0	 0.0	 2	    1.00000	    0.00000	 138.0	 2	    1.10000	    0.90000;
	146	 1	 8.43	 3.06	 0.0	 0.0	 2	    1.00000	    0.00000	 138.0	 2	    1.10000	    0.90000;
	147	 1	 3.75	 0.84	 0.0	 0.0	 2	    1.00000	    0.00000	 138.0	 2	    1.10000	    0.90000;
	148	 1	 28.21	 10.33	 0.0	 0.0	 2	    1.00000	    0.00000	 138.0	 2	    1.10000	    0.90000;
	149	 1	 1.56	 0.63	 0.0	 0.0	 2	    1.00000	    0.00000	 138.0	 2	    1.10000	    0.90000;
	150	 2	 634.0	 0.0	 0.0	 0.0	 2	    1.00000	    0.00000	 345.0	 2	    1.10000	    0.90000;
	151	 1	 81.5	 85.9	 0.0	 0.0	 3	    1.00000	    0.00000	 345.0	 3	    1.10000	    0.90000;
	152	 1	 0.0	 0.0	 0.0	 0.0	 3	    1.00000	    0.00000	 500.0	 3	    1.10000	    0.90000;
	153	 2	 0.0	 0.0	 0.0	 -11.35	 3	    1.00000	    0.00000	 500.0	 3	    1.10000	    0.90000;
	154	 1	 0.0	 0.0	 0.0	 0.0	 3	    1.00000	    0.00000	 500.0	 3	    1.10000	    0.90000;
	155	 1	 0.0	 0.0	 0.0	 0.0	 3	    1.00000	    0.00000	 500.0	 3	    1.10000	    0.90000;
	156	 1	 0.0	 0.0	 0.0	 75.29	 3	    1.00000	    0.00000	 500.0	 3	    1.10000	    0.90000;
	157	 2	 0.0	 0.0	 0.0	 -27.07	 3	    1.00000	    0.00000	 345.0	 3	    1.10000	    0.90000;
	158	 2	 0.0	 0.0	 0.0	 -322.11	 3	    1.00000	    0.00000	 500.0	 3	    1.10000	    0.90000;
	159	 1	 0.0	 0.0	 0.0	 0.0	 3	    1.00000	    0.00000	 500.0	 3	    1.10000	    0.90000;
	160	 1	 0.0	 0.0	 0.0	 0.0	 3	    1.00000	    0.00000	 500.0	 3	    1.10000	    0.90000;
	161	 2	 0.0	 0.0	 0.0	 -124.24	 3	    1.00000	    0.00000	 500.0	 3	    1.10000	    0.90000;
	162	 1	 34.71	 60.16	 0.0	 0.0	 3	    1.00000	    0.00000	 500.0	 3	    1.10000	    0.90000;
	163	 1	 0.0	 0.0	 0.0	 70.0	 3	    1.00000	    0.00000	 500.0	 3	    1.10000	    0.90000;
	164	 1	 0.0	 0.0	 0.0	 0.0	 3	    1.00000	    0.00000	 500.0	 3	    1.10000	    0.90000;
	165	 2	 11.0	 40.0	 0.0	 0.0	 3	    1.00000	    0.00000	 500.0	 3	    1.10000	    0.90000;
	166	 2	 5.0	 10.0	 0.0	 0.0	 3	    1.00000	    0.00000	 500.0	 3	    1.10000	    0.90000;
	167	 1	 6.93	 3.11	 0.0	 0.0	 3	    1.00000	    0.00000	 138.0	 3	    1.10000	    0.90000;
	168	 2	 14.65	 1.0	 0.0	 0.0	 3	    1.00000	    0.00000	 138.0	 3	    1.10000	    0.90000;
	169	 2	 8.14	 1.32	 0.0	 0.0	 3	    1.00000	    0.00000	 138.0	 3	    1.10000	    0.90000;
	170	 1	 14.17	 4.22	 0.0	 0.0	 3	    1.00000	    0.00000	 138.0	 3	    1.10000	    0.90000;
	171	 2	 4.22	 1.0	 0.0	 0.0	 3	    1.00000	    0.00000	 138.0	 3	    1.10000	    0.90000;
	172	 1	 131.91	 57.06	 0.0	 0.0	 3	    1.00000	    0.00000	 138.0	 3	    1.10000	    0.90000;
	173	 1	 0.0	 0.0	 0.0	 48.6	 3	    1.00000	    0.00000	 32.0	 3	    1.10000	    0.90000;
	174	 1	 0.0	 0.0	 0.0	 0.0	 3	    1.00000	    0.00000	 138.0	 3	    1.10000	    0.90000;
	175	 1	 5.22	 2.11	 0.0	 0.0	 3	    1.00000	    0.00000	 138.0	 3	    1.10000	    0.90000;
	176	 1	 2.61	 1.0	 0.0	 0.0	 3	    1.00000	    0.00000	 138.0	 3	    1.10000	    0.90000;
	177	 2	 0.01	 0.01	 0.0	 0.0	 3	    1.00000	    0.00000	 138.0	 3	    1.10000	    0.90000;
	178	 2	 0.01	 0.01	 0.0	 0.0	 3	    1.00000	    0.00000	 138.0	 3	    1.10000	    0.90000;
	179	 1	 15.67	 5.22	 0.0	 0.0	 3	    1.00000	    0.00000	 138.0	 3	    1.10000	    0.90000;
	180	 1	 16.78	 4.72	 0.0	 0.0	 3	    1.00000	    0.00000	 138.0	 3	    1.10000	    0.90000;
	181	 1	 4.22	 0.5	 0.0	 0.0	 3	    1.00000	    0.00000	 138.0	 3	    1.10000	    0.90000;
	182	 1	 10.85	 1.0	 0.0	 0.0	 3	    1.00000	    0.00000	 138.0	 3	    1.10000	    0.90000;
	183	 2	 14.67	 3.11	 0.0	 0.0	 3	    1.00000	    0.00000	 138.0	 3	    1.10000	    0.90000;
	184	 1	 7.54	 1.0	 0.0	 0.0	 3	    1.00000	    0.00000	 138.0	 3	    1.10000	    0.90000;
	185	 2	 2.11	 0.5	 0.0	 0.0	 3	    1.00000	    0.00000	 138.0	 3	    1.10000	    0.90000;
	186	 1	 5.73	 1.0	 0.0	 0.0	 3	    1.00000	    0.00000	 138.0	 3	    1.10000	    0.90000;
	187	 1	 0.0	 0.0	 0.0	 60.0	 3	    1.00000	    0.00000	 16.0	 3	    1.10000	    0.90000;
	188	 2	 9.45	 2.61	 0.0	 0.0	 3	    1.00000	    0.00000	 138.0	 3	    1.10000	    0.90000;
	189	 1	 4.22	 1.0	 0.0	 0.0	 3	    1.00000	    0.00000	 138.0	 3	    1.10000	    0.90000;
	190	 1	 23.11	 8.34	 0.0	 0.0	 3	    1.00000	    0.00000	 138.0	 3	    1.10000	    0.90000;
	191	 1	 15.67	 2.61	 0.0	 0.0	 3	    1.00000	    0.00000	 138.0	 3	    1.10000	    0.90000;
	192	 1	 19.89	 6.83	 0.0	 0.0	 3	    1.00000	    0.00000	 138.0	 3	    1.10000	    0.90000;
	193	 1	 8.34	 2.71	 0.0	 0.0	 3	    1.00000	    0.00000	 138.0	 3	    1.10000	    0.90000;
	194	 2	 16.78	 6.33	 0.0	 0.0	 3	    1.00000	    0.00000	 138.0	 3	    1.10000	    0.90000;
	195	 2	 14.67	 3.11	 0.0	 0.0	 3	    1.00000	    0.00000	 138.0	 3	    1.10000	    0.90000;
	196	 1	 5.8	 -0.22	 0.0	 0.0	 3	    1.00000	    0.00000	 138.0	 3	    1.10000	    0.90000;
	197	 1	 7.33	 2.11	 0.0	 0.0	 3	    1.00000	    0.00000	 138.0	 3	    1.10000	    0.90000;
	198	 1	 5.22	 0.5	 0.0	 0.0	 3	    1.00000	    0.00000	 138.0	 3	    1.10000	    0.90000;
	199	 1	 0.0	 0.0	 0.0	 -16.07	 3	    1.00000	    0.00000	 138.0	 3	    1.10000	    0.90000;
	200	 1	 0.0	 0.0	 0.0	 -2.01	 3	    1.00000	    0.00000	 138.0	 3	    1.10000	    0.90000;
...
];

%% generator data
%	bus	Pg	Qg	Qmax	Qmin	Vg	mBase	status	Pmax	Pmin	Pc1	Pc2	Qc1min	Qc1max	Qc2min	Qc2max	ramp_agc	ramp_10	ramp_30	ramp_q	apf
mpc.gen = [
	9	 195.625	 50.0	 135.0	 -35.0	 1.0245	 252.98	 1	 256.25	 135.0	 0.0	 0.0	 0.0	 0.0	 0.0	 0.0	 0.0	 0.0	 0.0	 0.0	 256.25;
	10	 299.04	 50.0	 135.0	 -35.0	 1.0245	 267.71	 1	 426.56	 171.52	 0.0	 0.0	 0.0	 0.0	 0.0	 0.0	 0.0	 0.0	 0.0	 0.0	 426.557;
	10	 311.55	 52.5	 140.0	 -35.0	 1.0245	 256.16	 1	 444.22	 178.88	 0.0	 0.0	 0.0	 0.0	 0.0	 0.0	 0.0	 0.0	 0.0	 0.0	 444.218;
	11	 47.5	 0.0	 16.0	 -16.0	 1.0245	 48.0	 0	 55.0	 40.0	 0.0	 0.0	 0.0	 0.0	 0.0	 0.0	 0.0	 0.0	 0.0	 0.0	 55.0;
	11	 45.415	 17.5	 45.0	 -10.0	 1.0245	 55.0	 1	 55.0	 35.83	 0.0	 0.0	 0.0	 0.0	 0.0	 0.0	 0.0	 0.0	 0.0	 0.0	 55.0;
	12	 45.415	 17.5	 45.0	 -10.0	 1.0245	 55.0	 1	 55.0	 35.83	 0.0	 0.0	 0.0	 0.0	 0.0	 0.0	 0.0	 0.0	 0.0	 0.0	 55.0;
	20	 44.0	 0.0	 16.67	 -16.67	 1.0245	 50.0	 0	 50.0	 38.0	 0.0	 0.0	 0.0	 0.0	 0.0	 0.0	 0.0	 0.0	 0.0	 0.0	 50.0;
	24	 37.3	 91.79	 192.0	 -8.42	 1.0149	 100.0	 1	 74.5	 0.1	 0.0	 0.0	 0.0	 0.0	 0.0	 0.0	 0.0	 0.0	 0.0	 0.0	 74.505;
	25	 14.5	 0.0	 8.0	 -8.0	 1.0245	 24.0	 0	 24.0	 5.0	 0.0	 0.0	 0.0	 0.0	 0.0	 0.0	 0.0	 0.0	 0.0	 0.0	 24.0;
	25	 10.5	 0.0	 5.67	 -5.67	 1.0245	 17.0	 0	 17.0	 4.0	 0.0	 0.0	 0.0	 0.0	 0.0	 0.0	 0.0	 0.0	 0.0	 0.0	 17.0;
	26	 9.0	 -2.5	 178.0	 -183.0	 1.0245	 15.0	 1	 15.0	 3.0	 0.0	 0.0	 0.0	 0.0	 0.0	 0.0	 0.0	 0.0	 0.0	 0.0	 15.0;
	26	 9.0	 0.0	 5.0	 -5.0	 1.0245	 15.0	 0	 15.0	 3.0	 0.0	 0.0	 0.0	 0.0	 0.0	 0.0	 0.0	 0.0	 0.0	 0.0	 15.0;
	26	 9.0	 0.0	 5.0	 -5.0	 1.0245	 15.0	 0	 15.0	 3.0	 0.0	 0.0	 0.0	 0.0	 0.0	 0.0	 0.0	 0.0	 0.0	 0.0	 15.0;
	32	 135.505	 0.0	 33.33	 -33.33	 1.0238	 100.0	 0	 265.0	 6.01	 0.0	 0.0	 0.0	 0.0	 0.0	 0.0	 0.0	 0.0	 0.0	 0.0	 265.0;
	46	 6.0	 0.0	 4.0	 -4.0	 1.0218	 12.0	 0	 12.0	 0.0	 0.0	 0.0	 0.0	 0.0	 0.0	 0.0	 0.0	 0.0	 0.0	 0.0	 12.0;
	46	 6.0	 3.5	 184.0	 -177.0	 1.0218	 12.0	 1	 12.0	 0.0	 0.0	 0.0	 0.0	 0.0	 0.0	 0.0	 0.0	 0.0	 0.0	 0.0	 12.0;
	53	 20.17	 0.0	 33.33	 -33.33	 1.0043	 100.0	 0	 27.67	 12.67	 0.0	 0.0	 0.0	 0.0	 0.0	 0.0	 0.0	 0.0	 0.0	 0.0	 27.674;
	67	 135.665	 0.0	 33.33	 -33.33	 1.0036	 100.0	 0	 268.0	 3.33	 0.0	 0.0	 0.0	 0.0	 0.0	 0.0	 0.0	 0.0	 0.0	 0.0	 268.0;
	68	 195.625	 52.5	 140.0	 -35.0	 1.0273	 267.05	 1	 256.25	 135.0	 0.0	 0.0	 0.0	 0.0	 0.0	 0.0	 0.0	 0.0	 0.0	 0.0	 256.25;
	75	 170.0	 58.875	 138.75	 -21.0	 1.0245	 253.76	 1	 205.0	 135.0	 0.0	 0.0	 0.0	 0.0	 0.0	 0.0	 0.0	 0.0	 0.0	 0.0	 205.0;
	76	 156.0	 0.0	 74.0	 -74.0	 1.0245	 222.0	 0	 222.0	 90.0	 0.0	 0.0	 0.0	 0.0	 0.0	 0.0	 0.0	 0.0	 0.0	 0.0	 222.0;
	76	 170.0	 0.0	 68.33	 -68.33	 1.0245	 205.0	 0	 205.0	 135.0	 0.0	 0.0	 0.0	 0.0	 0.0	 0.0	 0.0	 0.0	 0.0	 0.0	 205.0;
	76	 166.0	 44.0	 119.0	 -31.0	 1.0245	 232.0	 1	 232.0	 100.0	 0.0	 0.0	 0.0	 0.0	 0.0	 0.0	 0.0	 0.0	 0.0	 0.0	 232.0;
	77	 170.0	 56.25	 127.5	 -15.0	 1.0098	 268.92	 1	 250.0	 90.0	 0.0	 0.0	 0.0	 0.0	 0.0	 0.0	 0.0	 0.0	 0.0	 0.0	 250.0;
	77	 183.53	 17.175	 171.78	 -137.43	 1.0098	 100.0	 1	 247.43	 119.63	 0.0	 0.0	 0.0	 0.0	 0.0	 0.0	 0.0	 0.0	 0.0	 0.0	 247.434;
	78	 120.18	 -12.485	 99.9	 -124.87	 0.9615	 100.0	 1	 173.85	 66.51	 0.0	 0.0	 0.0	 0.0	 0.0	 0.0	 0.0	 0.0	 0.0	 0.0	 173.855;
	90	 26.7	 0.0	 33.33	 -33.33	 0.9975	 100.0	 0	 34.2	 19.2	 0.0	 0.0	 0.0	 0.0	 0.0	 0.0	 0.0	 0.0	 0.0	 0.0	 34.203;
	92	 156.0	 49.0	 117.0	 -19.0	 1.015	 222.0	 1	 222.0	 90.0	 0.0	 0.0	 0.0	 0.0	 0.0	 0.0	 0.0	 0.0	 0.0	 0.0	 222.0;
	95	 143.5	 14.0	 197.0	 -169.0	 1.0027	 2.04	 1	 287.0	 0.0	 0.0	 0.0	 0.0	 0.0	 0.0	 0.0	 0.0	 0.0	 0.0	 0.0	 287.0;
	96	 137.0	 0.0	 0.33	 -0.33	 1.0245	 1.0	 0	 274.0	 0.0	 0.0	 0.0	 0.0	 0.0	 0.0	 0.0	 0.0	 0.0	 0.0	 0.0	 274.0;
	98	 37.935	 -80.0	 15.0	 -175.0	 1.0245	 65.75	 1	 65.87	 10.0	 0.0	 0.0	 0.0	 0.0	 0.0	 0.0	 0.0	 0.0	 0.0	 0.0	 65.875;
	98	 134.5	 8.0	 191.0	 -175.0	 1.0245	 6.0	 1	 267.0	 2.0	 0.0	 0.0	 0.0	 0.0	 0.0	 0.0	 0.0	 0.0	 0.0	 0.0	 267.0;
	99	 131.5	 -1.0	 178.0	 -180.0	 1.0245	 6.47	 1	 262.0	 1.0	 0.0	 0.0	 0.0	 0.0	 0.0	 0.0	 0.0	 0.0	 0.0	 0.0	 262.0;
	99	 28.5	 0.0	 9.67	 -9.67	 1.0245	 29.0	 0	 36.0	 21.0	 0.0	 0.0	 0.0	 0.0	 0.0	 0.0	 0.0	 0.0	 0.0	 0.0	 36.0;
	112	 139.0	 5.0	 179.0	 -169.0	 1.0245	 0.26	 1	 278.0	 0.0	 0.0	 0.0	 0.0	 0.0	 0.0	 0.0	 0.0	 0.0	 0.0	 0.0	 278.0;
	112	 144.5	 4.0	 176.0	 -168.0	 1.0245	 1.36	 1	 288.0	 1.0	 0.0	 0.0	 0.0	 0.0	 0.0	 0.0	 0.0	 0.0	 0.0	 0.0	 288.0;
	120	 12.5	 8.0	 190.0	 -174.0	 1.0109	 20.0	 1	 20.0	 5.0	 0.0	 0.0	 0.0	 0.0	 0.0	 0.0	 0.0	 0.0	 0.0	 0.0	 20.0;
	124	 53.5	 0.0	 22.33	 -22.33	 1.0245	 67.0	 0	 67.0	 40.0	 0.0	 0.0	 0.0	 0.0	 0.0	 0.0	 0.0	 0.0	 0.0	 0.0	 67.0;
	125	 52.5	 -74.125	 18.75	 -167.0	 1.03	 65.0	 1	 65.0	 40.0	 0.0	 0.0	 0.0	 0.0	 0.0	 0.0	 0.0	 0.0	 0.0	 0.0	 65.0;
	127	 15.5	 6.0	 189.0	 -177.0	 1.0136	 31.0	 1	 31.0	 0.0	 0.0	 0.0	 0.0	 0.0	 0.0	 0.0	 0.0	 0.0	 0.0	 0.0	 31.0;
	128	 15.5	 6.0	 187.0	 -175.0	 1.0136	 31.0	 1	 31.0	 0.0	 0.0	 0.0	 0.0	 0.0	 0.0	 0.0	 0.0	 0.0	 0.0	 0.0	 31.0;
	135	 143.5	 -1.0	 182.0	 -184.0	 1.0218	 2.03	 1	 286.0	 1.0	 0.0	 0.0	 0.0	 0.0	 0.0	 0.0	 0.0	 0.0	 0.0	 0.0	 286.0;
	136	 128.5	 0.0	 1.33	 -1.33	 1.0245	 4.0	 0	 256.0	 1.0	 0.0	 0.0	 0.0	 0.0	 0.0	 0.0	 0.0	 0.0	 0.0	 0.0	 256.0;
	136	 10.5	 0.0	 6.0	 -6.0	 1.0245	 18.0	 0	 18.0	 3.0	 0.0	 0.0	 0.0	 0.0	 0.0	 0.0	 0.0	 0.0	 0.0	 0.0	 18.0;
	136	 33.0	 0.0	 18.67	 -18.67	 1.0245	 56.0	 0	 56.0	 10.0	 0.0	 0.0	 0.0	 0.0	 0.0	 0.0	 0.0	 0.0	 0.0	 0.0	 56.0;
	138	 130.0	 1.0	 186.0	 -184.0	 1.0245	 0.24	 1	 260.0	 0.0	 0.0	 0.0	 0.0	 0.0	 0.0	 0.0	 0.0	 0.0	 0.0	 0.0	 260.0;
	150	 134.0	 3.0	 183.0	 -177.0	 1.0248	 108.13	 1	 268.0	 0.0	 0.0	 0.0	 0.0	 0.0	 0.0	 0.0	 0.0	 0.0	 0.0	 0.0	 268.0;
	153	 130.465	 0.0	 33.33	 -33.33	 0.9992	 100.0	 0	 137.96	 122.97	 0.0	 0.0	 0.0	 0.0	 0.0	 0.0	 0.0	 0.0	 0.0	 0.0	 137.965;
	157	 46.04	 0.0	 33.33	 -33.33	 0.9638	 100.0	 0	 53.54	 38.54	 0.0	 0.0	 0.0	 0.0	 0.0	 0.0	 0.0	 0.0	 0.0	 0.0	 53.537;
	158	 276.58	 0.0	 33.33	 -33.33	 0.9547	 100.0	 0	 284.08	 269.08	 0.0	 0.0	 0.0	 0.0	 0.0	 0.0	 0.0	 0.0	 0.0	 0.0	 284.075;
	161	 34.52	 0.0	 33.33	 -33.33	 0.9771	 100.0	 0	 42.02	 27.02	 0.0	 0.0	 0.0	 0.0	 0.0	 0.0	 0.0	 0.0	 0.0	 0.0	 42.024;
	165	 -10.5	 21.5	 105.0	 -62.0	 1.0113	 216.55	 1	 179.0	 -200.0	 0.0	 0.0	 0.0	 0.0	 0.0	 0.0	 0.0	 0.0	 0.0	 0.0	 179.0;
	165	 -10.5	 21.5	 105.0	 -62.0	 1.0113	 179.0	 1	 179.0	 -200.0	 0.0	 0.0	 0.0	 0.0	 0.0	 0.0	 0.0	 0.0	 0.0	 0.0	 179.0;
	165	 -10.5	 27.5	 130.0	 -75.0	 1.0113	 179.0	 1	 179.0	 -200.0	 0.0	 0.0	 0.0	 0.0	 0.0	 0.0	 0.0	 0.0	 0.0	 0.0	 179.0;
	166	 -10.5	 30.0	 160.0	 -100.0	 1.0113	 179.0	 1	 179.0	 -200.0	 0.0	 0.0	 0.0	 0.0	 0.0	 0.0	 0.0	 0.0	 0.0	 0.0	 179.0;
	168	 40.5	 -72.0	 35.0	 -179.0	 1.0191	 58.99	 1	 55.0	 26.0	 0.0	 0.0	 0.0	 0.0	 0.0	 0.0	 0.0	 0.0	 0.0	 0.0	 55.0;
	169	 40.5	 0.0	 18.33	 -18.33	 1.0191	 55.0	 0	 55.0	 26.0	 0.0	 0.0	 0.0	 0.0	 0.0	 0.0	 0.0	 0.0	 0.0	 0.0	 55.0;
	171	 142.0	 3.5	 189.0	 -182.0	 1.0218	 0.36	 1	 284.0	 0.0	 0.0	 0.0	 0.0	 0.0	 0.0	 0.0	 0.0	 0.0	 0.0	 0.0	 284.0;
	177	 9.0	 14.5	 199.0	 -170.0	 1.0218	 18.0	 1	 18.0	 0.0	 0.0	 0.0	 0.0	 0.0	 0.0	 0.0	 0.0	 0.0	 0.0	 0.0	 18.0;
	178	 11.0	 12.0	 189.0	 -165.0	 1.0245	 22.0	 1	 22.0	 0.0	 0.0	 0.0	 0.0	 0.0	 0.0	 0.0	 0.0	 0.0	 0.0	 0.0	 22.0;
	183	 131.0	 -2.0	 180.0	 -184.0	 1.0218	 0.24	 1	 262.0	 0.0	 0.0	 0.0	 0.0	 0.0	 0.0	 0.0	 0.0	 0.0	 0.0	 0.0	 262.0;
	185	 137.375	 0.0	 31.53	 -31.53	 1.0321	 100.0	 1	 273.0	 1.75	 0.0	 0.0	 0.0	 0.0	 0.0	 0.0	 0.0	 0.0	 0.0	 0.0	 273.0;
	188	 150.0	 7.0	 193.0	 -179.0	 1.0245	 2.0	 1	 299.0	 1.0	 0.0	 0.0	 0.0	 0.0	 0.0	 0.0	 0.0	 0.0	 0.0	 0.0	 299.0;
	194	 142.0	 2.5	 189.0	 -184.0	 1.0218	 1.0	 1	 284.0	 0.0	 0.0	 0.0	 0.0	 0.0	 0.0	 0.0	 0.0	 0.0	 0.0	 0.0	 284.0;
	195	 128.0	 6.5	 183.0	 -170.0	 1.0245	 1.08	 1	 256.0	 0.0	 0.0	 0.0	 0.0	 0.0	 0.0	 0.0	 0.0	 0.0	 0.0	 0.0	 256.0;
	201	 145.5	 5.0	 188.0	 -178.0	 1.0245	 0.12	 1	 291.0	 0.0	 0.0	 0.0	 0.0	 0.0	 0.0	 0.0	 0.0	 0.0	 0.0	 0.0	 291.0;
	207	 147.0	 9.5	 197.0	 -178.0	 1.0218	 9.0	 1	 294.0	 0.0	 0.0	 0.0	 0.0	 0.0	 0.0	 0.0	 0.0	 0.0	 0.0	 0.0	 294.0;
	209	 130.5	 2.0	 185.0	 -181.0	 1.0218	 0.24	 1	 261.0	 0.0	 0.0	 0.0	 0.0	 0.0	 0.0	 0.0	 0.0	 0.0	 0.0	 0.0	 261.0;
	217	 117.385	 0.0	 51.28	 -51.28	 0.9888	 100.0	 1	 171.02	 63.75	 0.0	 0.0	 0.0	 0.0	 0.0	 0.0	 0.0	 0.0	 0.0	 0.0	 171.015;
	223	 194.385	 70.0	 150.0	 -10.0	 1.0245	 282.49	 1	 268.77	 120.0	 0.0	 0.0	 0.0	 0.0	 0.0	 0.0	 0.0	 0.0	 0.0	 0.0	 268.77;
	224	 194.375	 55.0	 120.0	 -10.0	 1.0245	 281.34	 1	 268.75	 120.0	 0.0	 0.0	 0.0	 0.0	 0.0	 0.0	 0.0	 0.0	 0.0	 0.0	 268.75;
	225	 195.625	 66.875	 168.75	 -35.0	 1.0245	 252.98	 1	 256.25	 135.0	 0.0	 0.0	 0.0	 0.0	 0.0	 0.0	 0.0	 0.0	 0.0	 0.0	 256.25;
	227	 0.0	 0.0	 45.0	 -45.0	 1.0123	 135.0	 0	 135.0	 -135.0	 0.0	 0.0	 0.0	 0.0	 0.0	 0.0	 0.0	 0.0	 0.0	 0.0	 135.0;
	227	 0.0	 0.0	 45.0	 -45.0	 1.0123	 135.0	 0	 135.0	 -135.0	 0.0	 0.0	 0.0	 0.0	 0.0	 0.0	 0.0	 0.0	 0.0	 0.0	 135.0;
	228	 0.0	 0.0	 45.0	 -45.0	 1.0123	 135.0	 0	 135.0	 -135.0	 0.0	 0.0	 0.0	 0.0	 0.0	 0.0	 0.0	 0.0	 0.0	 0.0	 135.0;
	228	 0.0	 0.0	 45.0	 -45.0	 1.0123	 135.0	 0	 135.0	 -135.0	 0.0	 0.0	 0.0	 0.0	 0.0	 0.0	 0.0	 0.0	 0.0	 0.0	 135.0;
	235	 44.0	 0.0	 16.67	 -16.67	 1.0245	 50.0	 0	 50.0	 38.0	 0.0	 0.0	 0.0	 0.0	 0.0	 0.0	 0.0	 0.0	 0.0	 0.0	 50.0;
	235	 44.0	 0.0	 16.67	 -16.67	 1.0245	 50.0	 0	 50.0	 38.0	 0.0	 0.0	 0.0	 0.0	 0.0	 0.0	 0.0	 0.0	 0.0	 0.0	 50.0;
	235	 44.0	 0.0	 16.67	 -16.67	 1.0245	 50.0	 0	 50.0	 38.0	 0.0	 0.0	 0.0	 0.0	 0.0	 0.0	 0.0	 0.0	 0.0	 0.0	 50.0;
	236	 44.0	 0.0	 16.67	 -16.67	 1.0245	 50.0	 0	 50.0	 38.0	 0.0	 0.0	 0.0	 0.0	 0.0	 0.0	 0.0	 0.0	 0.0	 0.0	 50.0;
	245	 147.56	 0.0	 33.33	 -33.33	 1.0214	 100.0	 0	 295.0	 0.12	 0.0	 0.0	 0.0	 0.0	 0.0	 0.0	 0.0	 0.0	 0.0	 0.0	 295.0;
	246	 194.375	 55.0	 120.0	 -10.0	 1.0273	 273.78	 1	 268.75	 120.0	 0.0	 0.0	 0.0	 0.0	 0.0	 0.0	 0.0	 0.0	 0.0	 0.0	 268.75;
	248	 36.96	 0.0	 22.61	 -22.61	 1.0233	 100.0	 1	 60.35	 13.57	 0.0	 0.0	 0.0	 0.0	 0.0	 0.0	 0.0	 0.0	 0.0	 0.0	 60.349;
	252	 113.125	 39.0	 83.0	 -5.0	 1.0273	 160.45	 1	 156.25	 70.0	 0.0	 0.0	 0.0	 0.0	 0.0	 0.0	 0.0	 0.0	 0.0	 0.0	 156.25;
	252	 97.5	 39.0	 83.0	 -5.0	 1.0273	 143.77	 1	 125.0	 70.0	 0.0	 0.0	 0.0	 0.0	 0.0	 0.0	 0.0	 0.0	 0.0	 0.0	 125.0;
	274	 148.5	 -2.0	 180.0	 -184.0	 1.0129	 42.43	 1	 297.0	 0.0	 0.0	 0.0	 0.0	 0.0	 0.0	 0.0	 0.0	 0.0	 0.0	 0.0	 297.0;
	277	 130.465	 0.0	 33.33	 -33.33	 0.9992	 100.0	 0	 137.96	 122.97	 0.0	 0.0	 0.0	 0.0	 0.0	 0.0	 0.0	 0.0	 0.0	 0.0	 137.965;
	281	 46.04	 0.0	 33.33	 -33.33	 0.9638	 100.0	 0	 53.54	 38.54	 0.0	 0.0	 0.0	 0.0	 0.0	 0.0	 0.0	 0.0	 0.0	 0.0	 53.537;
	282	 276.58	 0.0	 33.33	 -33.33	 0.9547	 100.0	 0	 284.08	 269.08	 0.0	 0.0	 0.0	 0.0	 0.0	 0.0	 0.0	 0.0	 0.0	 0.0	 284.075;
	285	 34.52	 0.0	 33.33	 -33.33	 0.9771	 100.0	 0	 42.02	 27.02	 0.0	 0.0	 0.0	 0.0	 0.0	 0.0	 0.0	 0.0	 0.0	 0.0	 42.024;
	289	 -10.5	 21.5	 105.0	 -62.0	 1.0113	 216.55	 1	 179.0	 -200.0	 0.0	 0.0	 0.0	 0.0	 0.0	 0.0	 0.0	 0.0	 0.0	 0.0	 179.0;
	289	 -10.5	 21.5	 105.0	 -62.0	 1.0113	 179.0	 1	 179.0	 -200.0	 0.0	 0.0	 0.0	 0.0	 0.0	 0.0	 0.0	 0.0	 0.0	 0.0	 179.0;
	289	 -10.5	 27.5	 130.0	 -75.0	 1.0113	 179.0	 1	 179.0	 -200.0	 0.0	 0.0	 0.0	 0.0	 0.0	 0.0	 0.0	 0.0	 0.0	 0.0	 179.0;
	290	 -10.5	 30.0	 160.0	 -100.0	 1.0113	 179.0	 1	 179.0	 -200.0	 0.0	 0.0	 0.0	 0.0	 0.0	 0.0	 0.0	 0.0	 0.0	 0.0	 179.0;
	292	 40.5	 -71.0	 35.0	 -177.0	 1.0191	 58.99	 1	 55.0	 26.0	 0.0	 0.0	 0.0	 0.0	 0.0	 0.0	 0.0	 0.0	 0.0	 0.0	 55.0;
	293	 40.5	 0.0	 18.33	 -18.33	 1.0191	 55.0	 0	 55.0	 26.0	 0.0	 0.0	 0.0	 0.0	 0.0	 0.0	 0.0	 0.0	 0.0	 0.0	 55.0;
	295	 148.0	 5.0	 188.0	 -178.0	 1.0218	 0.36	 1	 296.0	 0.0	 0.0	 0.0	 0.0	 0.0	 0.0	 0.0	 0.0	 0.0	 0.0	 0.0	 296.0;
	301	 9.0	 0.5	 180.0	 -179.0	 1.0218	 18.0	 1	 18.0	 0.0	 0.0	 0.0	 0.0	 0.0	 0.0	 0.0	 0.0	 0.0	 0.0	 0.0	 18.0;
	302	 11.0	 6.5	 186.0	 -173.0	 1.0245	 22.0	 1	 22.0	 0.0	 0.0	 0.0	 0.0	 0.0	 0.0	 0.0	 0.0	 0.0	 0.0	 0.0	 22.0;
	307	 147.0	 14.0	 200.0	 -172.0	 1.0218	 0.24	 1	 294.0	 0.0	 0.0	 0.0	 0.0	 0.0	 0.0	 0.0	 0.0	 0.0	 0.0	 0.0	 294.0;
	309	 151.33	 0.0	 33.33	 -33.33	 1.0321	 100.0	 0	 295.0	 7.66	 0.0	 0.0	 0.0	 0.0	 0.0	 0.0	 0.0	 0.0	 0.0	 0.0	 295.0;
	312	 129.5	 14.5	 196.0	 -167.0	 1.0245	 2.0	 1	 258.0	 1.0	 0.0	 0.0	 0.0	 0.0	 0.0	 0.0	 0.0	 0.0	 0.0	 0.0	 258.0;
	318	 149.5	 -1.0	 177.0	 -179.0	 1.0218	 1.0	 1	 299.0	 0.0	 0.0	 0.0	 0.0	 0.0	 0.0	 0.0	 0.0	 0.0	 0.0	 0.0	 299.0;
	319	 132.0	 11.5	 196.0	 -173.0	 1.0245	 1.08	 1	 264.0	 0.0	 0.0	 0.0	 0.0	 0.0	 0.0	 0.0	 0.0	 0.0	 0.0	 0.0	 264.0;
	325	 133.5	 1.5	 175.0	 -172.0	 1.0245	 0.12	 1	 267.0	 0.0	 0.0	 0.0	 0.0	 0.0	 0.0	 0.0	 0.0	 0.0	 0.0	 0.0	 267.0;
	331	 127.0	 1.0	 176.0	 -174.0	 1.0218	 9.0	 1	 254.0	 0.0	 0.0	 0.0	 0.0	 0.0	 0.0	 0.0	 0.0	 0.0	 0.0	 0.0	 254.0;
	333	 133.5	 14.0	 199.0	 -171.0	 1.0218	 0.24	 1	 267.0	 0.0	 0.0	 0.0	 0.0	 0.0	 0.0	 0.0	 0.0	 0.0	 0.0	 0.0	 267.0;
	343	 201.99	 0.0	 363.58	 -363.58	 1.01	 100.0	 1	 403.98	 0.0	 0.0	 0.0	 0.0	 0.0	 0.0	 0.0	 0.0	 0.0	 0.0	 0.0	 403.976;
	344	 201.99	 0.0	 363.58	 -363.58	 1.01	 100.0	 1	 403.98	 0.0	 0.0	 0.0	 0.0	 0.0	 0.0	 0.0	 0.0	 0.0	 0.0	 0.0	 403.976;
	345	 202.01	 0.0	 363.62	 -363.62	 1.01	 100.0	 1	 404.02	 0.0	 0.0	 0.0	 0.0	 0.0	 0.0	 0.0	 0.0	 0.0	 0.0	 0.0	 404.019;
	347	 183.75	 0.0	 330.75	 -330.75	 1.01	 100.0	 1	 367.5	 0.0	 0.0	 0.0	 0.0	 0.0	 0.0	 0.0	 0.0	 0.0	 0.0	 0.0	 367.5;
	348	 627.58	 0.0	 33.33	 -33.33	 0.9978	 100.0	 0	 635.08	 620.08	 0.0	 0.0	 0.0	 0.0	 0.0	 0.0	 0.0	 0.0	 0.0	 0.0	 635.08;
	349	 135.0	 0.0	 194.4	 -194.4	 1.01	 100.0	 1	 270.0	 0.0	 0.0	 0.0	 0.0	 0.0	 0.0	 0.0	 0.0	 0.0	 0.0	 0.0	 270.0;
	350	 135.0	 0.0	 194.4	 -194.4	 1.01	 100.0	 1	 270.0	 0.0	 0.0	 0.0	 0.0	 0.0	 0.0	 0.0	 0.0	 0.0	 0.0	 0.0	 270.0;
	351	 135.0	 0.0	 194.4	 -194.4	 1.01	 100.0	 1	 270.0	 0.0	 0.0	 0.0	 0.0	 0.0	 0.0	 0.0	 0.0	 0.0	 0.0	 0.0	 270.0;
	352	 135.0	 0.0	 194.4	 -194.4	 1.01	 100.0	 1	 270.0	 0.0	 0.0	 0.0	 0.0	 0.0	 0.0	 0.0	 0.0	 0.0	 0.0	 0.0	 270.0;
	353	 151.875	 0.0	 218.7	 -218.7	 1.01	 100.0	 1	 303.75	 0.0	 0.0	 0.0	 0.0	 0.0	 0.0	 0.0	 0.0	 0.0	 0.0	 0.0	 303.75;
	354	 151.875	 0.0	 218.7	 -218.7	 1.01	 100.0	 1	 303.75	 0.0	 0.0	 0.0	 0.0	 0.0	 0.0	 0.0	 0.0	 0.0	 0.0	 0.0	 303.75;
	355	 135.565	 0.0	 195.21	 -195.21	 1.01	 100.0	 1	 271.13	 0.0	 0.0	 0.0	 0.0	 0.0	 0.0	 0.0	 0.0	 0.0	 0.0	 0.0	 271.125;
	356	 135.565	 0.0	 195.21	 -195.21	 1.01	 100.0	 1	 271.13	 0.0	 0.0	 0.0	 0.0	 0.0	 0.0	 0.0	 0.0	 0.0	 0.0	 0.0	 271.125;
	357	 135.565	 0.0	 195.21	 -195.21	 1.01	 100.0	 1	 271.13	 0.0	 0.0	 0.0	 0.0	 0.0	 0.0	 0.0	 0.0	 0.0	 0.0	 0.0	 271.125;
	358	 173.4	 0.0	 312.12	 -312.12	 1.01	 100.0	 1	 346.8	 0.0	 0.0	 0.0	 0.0	 0.0	 0.0	 0.0	 0.0	 0.0	 0.0	 0.0	 346.8;
	360	 198.96	 0.0	 358.13	 -358.13	 1.01	 100.0	 1	 397.92	 0.0	 0.0	 0.0	 0.0	 0.0	 0.0	 0.0	 0.0	 0.0	 0.0	 0.0	 397.923;
	361	 198.96	 0.0	 358.13	 -358.13	 1.01	 100.0	 1	 397.92	 0.0	 0.0	 0.0	 0.0	 0.0	 0.0	 0.0	 0.0	 0.0	 0.0	 0.0	 397.923;
	362	 198.96	 0.0	 358.13	 -358.13	 1.01	 100.0	 1	 397.92	 0.0	 0.0	 0.0	 0.0	 0.0	 0.0	 0.0	 0.0	 0.0	 0.0	 0.0	 397.923;
	364	 181.875	 0.0	 327.38	 -327.38	 1.01	 100.0	 1	 363.75	 0.0	 0.0	 0.0	 0.0	 0.0	 0.0	 0.0	 0.0	 0.0	 0.0	 0.0	 363.75;
	365	 181.875	 0.0	 327.38	 -327.38	 1.01	 100.0	 1	 363.75	 0.0	 0.0	 0.0	 0.0	 0.0	 0.0	 0.0	 0.0	 0.0	 0.0	 0.0	 363.75;
	366	 109.685	 0.0	 157.95	 -157.95	 1.01	 100.0	 1	 219.37	 0.0	 0.0	 0.0	 0.0	 0.0	 0.0	 0.0	 0.0	 0.0	 0.0	 0.0	 219.375;
	367	 109.685	 0.0	 157.95	 -157.95	 1.01	 100.0	 1	 219.37	 0.0	 0.0	 0.0	 0.0	 0.0	 0.0	 0.0	 0.0	 0.0	 0.0	 0.0	 219.375;
	374	 1266.63	 0.0	 33.33	 -33.33	 0.9918	 100.0	 0	 1274.13	 1259.13	 0.0	 0.0	 0.0	 0.0	 0.0	 0.0	 0.0	 0.0	 0.0	 0.0	 1274.13;
	379	 638.135	 -10.62	 116.28	 -137.52	 0.9829	 100.0	 1	 781.58	 494.69	 0.0	 0.0	 0.0	 0.0	 0.0	 0.0	 0.0	 0.0	 0.0	 0.0	 781.582;
	385	 392.03	 0.0	 38.05	 -38.05	 0.965	 100.0	 1	 470.44	 313.62	 0.0	 0.0	 0.0	 0.0	 0.0	 0.0	 0.0	 0.0	 0.0	 0.0	 470.436;
	392	 203.325	 0.0	 365.98	 -365.98	 1.01	 100.0	 1	 406.65	 0.0	 0.0	 0.0	 0.0	 0.0	 0.0	 0.0	 0.0	 0.0	 0.0	 0.0	 406.648;
	393	 203.125	 0.0	 365.63	 -365.63	 1.01	 100.0	 1	 406.25	 0.0	 0.0	 0.0	 0.0	 0.0	 0.0	 0.0	 0.0	 0.0	 0.0	 0.0	 406.252;
	394	 203.305	 0.0	 365.94	 -365.94	 1.01	 100.0	 1	 406.61	 0.0	 0.0	 0.0	 0.0	 0.0	 0.0	 0.0	 0.0	 0.0	 0.0	 0.0	 406.605;
	395	 203.27	 0.0	 365.89	 -365.89	 1.01	 100.0	 1	 406.54	 0.0	 0.0	 0.0	 0.0	 0.0	 0.0	 0.0	 0.0	 0.0	 0.0	 0.0	 406.539;
	397	 183.75	 0.0	 330.75	 -330.75	 1.01	 100.0	 1	 367.5	 0.0	 0.0	 0.0	 0.0	 0.0	 0.0	 0.0	 0.0	 0.0	 0.0	 0.0	 367.5;
	399	 183.75	 0.0	 330.75	 -330.75	 1.01	 100.0	 1	 367.5	 0.0	 0.0	 0.0	 0.0	 0.0	 0.0	 0.0	 0.0	 0.0	 0.0	 0.0	 367.5;
	400	 183.75	 0.0	 330.75	 -330.75	 1.01	 100.0	 1	 367.5	 0.0	 0.0	 0.0	 0.0	 0.0	 0.0	 0.0	 0.0	 0.0	 0.0	 0.0	 367.5;
	402	 135.0	 0.0	 194.4	 -194.4	 1.01	 100.0	 1	 270.0	 0.0	 0.0	 0.0	 0.0	 0.0	 0.0	 0.0	 0.0	 0.0	 0.0	 0.0	 270.0;
	403	 135.0	 0.0	 194.4	 -194.4	 1.01	 100.0	 1	 270.0	 0.0	 0.0	 0.0	 0.0	 0.0	 0.0	 0.0	 0.0	 0.0	 0.0	 0.0	 270.0;
	404	 135.0	 0.0	 194.4	 -194.4	 1.01	 100.0	 1	 270.0	 0.0	 0.0	 0.0	 0.0	 0.0	 0.0	 0.0	 0.0	 0.0	 0.0	 0.0	 270.0;
	405	 135.0	 0.0	 194.4	 -194.4	 1.01	 100.0	 1	 270.0	 0.0	 0.0	 0.0	 0.0	 0.0	 0.0	 0.0	 0.0	 0.0	 0.0	 0.0	 270.0;
	406	 151.875	 0.0	 218.7	 -218.7	 1.01	 100.0	 1	 303.75	 0.0	 0.0	 0.0	 0.0	 0.0	 0.0	 0.0	 0.0	 0.0	 0.0	 0.0	 303.75;
	407	 151.875	 0.0	 218.7	 -218.7	 1.01	 100.0	 1	 303.75	 0.0	 0.0	 0.0	 0.0	 0.0	 0.0	 0.0	 0.0	 0.0	 0.0	 0.0	 303.75;
	408	 135.565	 0.0	 195.21	 -195.21	 1.01	 100.0	 1	 271.13	 0.0	 0.0	 0.0	 0.0	 0.0	 0.0	 0.0	 0.0	 0.0	 0.0	 0.0	 271.125;
	409	 135.565	 0.0	 195.21	 -195.21	 1.01	 100.0	 1	 271.13	 0.0	 0.0	 0.0	 0.0	 0.0	 0.0	 0.0	 0.0	 0.0	 0.0	 0.0	 271.125;
	410	 135.565	 0.0	 195.21	 -195.21	 1.01	 100.0	 1	 271.13	 0.0	 0.0	 0.0	 0.0	 0.0	 0.0	 0.0	 0.0	 0.0	 0.0	 0.0	 271.125;
	411	 173.4	 0.0	 312.12	 -312.12	 1.01	 100.0	 1	 346.8	 0.0	 0.0	 0.0	 0.0	 0.0	 0.0	 0.0	 0.0	 0.0	 0.0	 0.0	 346.8;
	414	 158.44	 0.0	 228.15	 -228.15	 1.01	 100.0	 1	 316.88	 0.0	 0.0	 0.0	 0.0	 0.0	 0.0	 0.0	 0.0	 0.0	 0.0	 0.0	 316.875;
	415	 158.44	 0.0	 228.15	 -228.15	 1.01	 100.0	 1	 316.88	 0.0	 0.0	 0.0	 0.0	 0.0	 0.0	 0.0	 0.0	 0.0	 0.0	 0.0	 316.875;
	416	 158.44	 0.0	 228.15	 -228.15	 1.01	 100.0	 1	 316.88	 0.0	 0.0	 0.0	 0.0	 0.0	 0.0	 0.0	 0.0	 0.0	 0.0	 0.0	 316.875;
	417	 196.5	 0.0	 353.7	 -353.7	 1.01	 100.0	 1	 393.0	 0.0	 0.0	 0.0	 0.0	 0.0	 0.0	 0.0	 0.0	 0.0	 0.0	 0.0	 393.0;
	418	 163.125	 0.0	 234.9	 -234.9	 1.01	 100.0	 1	 326.25	 0.0	 0.0	 0.0	 0.0	 0.0	 0.0	 0.0	 0.0	 0.0	 0.0	 0.0	 326.25;
	419	 163.125	 0.0	 234.9	 -234.9	 1.01	 100.0	 1	 326.25	 0.0	 0.0	 0.0	 0.0	 0.0	 0.0	 0.0	 0.0	 0.0	 0.0	 0.0	 326.25;
	420	 157.5	 0.0	 226.8	 -226.8	 1.01	 100.0	 1	 315.0	 0.0	 0.0	 0.0	 0.0	 0.0	 0.0	 0.0	 0.0	 0.0	 0.0	 0.0	 315.0;
	421	 203.345	 0.0	 366.02	 -366.02	 1.01	 100.0	 1	 406.69	 0.0	 0.0	 0.0	 0.0	 0.0	 0.0	 0.0	 0.0	 0.0	 0.0	 0.0	 406.694;
	423	 41.25	 0.0	 59.4	 -59.4	 1.01	 100.0	 1	 82.5	 0.0	 0.0	 0.0	 0.0	 0.0	 0.0	 0.0	 0.0	 0.0	 0.0	 0.0	 82.5;
	424	 41.25	 0.0	 59.4	 -59.4	 1.01	 100.0	 1	 82.5	 0.0	 0.0	 0.0	 0.0	 0.0	 0.0	 0.0	 0.0	 0.0	 0.0	 0.0	 82.5;
	425	 42.19	 0.0	 60.75	 -60.75	 1.01	 100.0	 1	 84.38	 0.0	 0.0	 0.0	 0.0	 0.0	 0.0	 0.0	 0.0	 0.0	 0.0	 0.0	 84.375;
	426	 42.19	 0.0	 60.75	 -60.75	 1.01	 100.0	 1	 84.38	 0.0	 0.0	 0.0	 0.0	 0.0	 0.0	 0.0	 0.0	 0.0	 0.0	 0.0	 84.375;
	427	 42.19	 0.0	 60.75	 -60.75	 1.01	 100.0	 1	 84.38	 0.0	 0.0	 0.0	 0.0	 0.0	 0.0	 0.0	 0.0	 0.0	 0.0	 0.0	 84.375;
	428	 42.19	 0.0	 60.75	 -60.75	 1.01	 100.0	 1	 84.38	 0.0	 0.0	 0.0	 0.0	 0.0	 0.0	 0.0	 0.0	 0.0	 0.0	 0.0	 84.375;
	430	 181.875	 0.0	 327.38	 -327.38	 1.01	 100.0	 1	 363.75	 0.0	 0.0	 0.0	 0.0	 0.0	 0.0	 0.0	 0.0	 0.0	 0.0	 0.0	 363.75;
	431	 181.875	 0.0	 327.38	 -327.38	 1.01	 100.0	 1	 363.75	 0.0	 0.0	 0.0	 0.0	 0.0	 0.0	 0.0	 0.0	 0.0	 0.0	 0.0	 363.75;
	432	 109.685	 0.0	 157.95	 -157.95	 1.01	 100.0	 1	 219.37	 0.0	 0.0	 0.0	 0.0	 0.0	 0.0	 0.0	 0.0	 0.0	 0.0	 0.0	 219.375;
	433	 109.685	 0.0	 157.95	 -157.95	 1.01	 100.0	 1	 219.37	 0.0	 0.0	 0.0	 0.0	 0.0	 0.0	 0.0	 0.0	 0.0	 0.0	 0.0	 219.375;
	444	 343.92	 0.0	 18.95	 -18.95	 0.9946	 100.0	 1	 412.7	 275.14	 0.0	 0.0	 0.0	 0.0	 0.0	 0.0	 0.0	 0.0	 0.0	 0.0	 412.705;
	445	 273.3	 -16.55	 132.39	 -165.49	 0.9946	 100.0	 1	 342.01	 204.59	 0.0	 0.0	 0.0	 0.0	 0.0	 0.0	 0.0	 0.0	 0.0	 0.0	 342.005;
	452	 213.585	 0.0	 384.45	 -384.45	 1.01	 100.0	 1	 427.17	 0.0	 0.0	 0.0	 0.0	 0.0	 0.0	 0.0	 0.0	 0.0	 0.0	 0.0	 427.171;
	453	 213.5	 0.0	 384.3	 -384.3	 1.01	 100.0	 1	 427.0	 0.0	 0.0	 0.0	 0.0	 0.0	 0.0	 0.0	 0.0	 0.0	 0.0	 0.0	 427.003;
	455	 213.21	 0.0	 383.78	 -383.78	 1.01	 100.0	 1	 426.42	 0.0	 0.0	 0.0	 0.0	 0.0	 0.0	 0.0	 0.0	 0.0	 0.0	 0.0	 426.422;
	456	 213.235	 0.0	 383.82	 -383.82	 1.01	 100.0	 1	 426.47	 0.0	 0.0	 0.0	 0.0	 0.0	 0.0	 0.0	 0.0	 0.0	 0.0	 0.0	 426.467;
	457	 174.75	 0.0	 314.55	 -314.55	 1.01	 100.0	 1	 349.5	 0.0	 0.0	 0.0	 0.0	 0.0	 0.0	 0.0	 0.0	 0.0	 0.0	 0.0	 349.5;
	458	 174.75	 0.0	 314.55	 -314.55	 1.01	 100.0	 1	 349.5	 0.0	 0.0	 0.0	 0.0	 0.0	 0.0	 0.0	 0.0	 0.0	 0.0	 0.0	 349.5;
	459	 213.0	 0.0	 383.4	 -383.4	 1.01	 100.0	 1	 426.0	 0.0	 0.0	 0.0	 0.0	 0.0	 0.0	 0.0	 0.0	 0.0	 0.0	 0.0	 426.0;
	460	 172.5	 0.0	 310.5	 -310.5	 1.01	 100.0	 1	 345.0	 0.0	 0.0	 0.0	 0.0	 0.0	 0.0	 0.0	 0.0	 0.0	 0.0	 0.0	 345.0;
	461	 172.5	 0.0	 310.5	 -310.5	 1.01	 100.0	 1	 345.0	 0.0	 0.0	 0.0	 0.0	 0.0	 0.0	 0.0	 0.0	 0.0	 0.0	 0.0	 345.0;
	462	 213.44	 0.0	 384.19	 -384.19	 1.01	 100.0	 1	 426.88	 0.0	 0.0	 0.0	 0.0	 0.0	 0.0	 0.0	 0.0	 0.0	 0.0	 0.0	 426.88;
	464	 213.47	 0.0	 384.25	 -384.25	 1.01	 100.0	 1	 426.94	 0.0	 0.0	 0.0	 0.0	 0.0	 0.0	 0.0	 0.0	 0.0	 0.0	 0.0	 426.944;
	465	 213.47	 0.0	 384.25	 -384.25	 1.01	 100.0	 1	 426.94	 0.0	 0.0	 0.0	 0.0	 0.0	 0.0	 0.0	 0.0	 0.0	 0.0	 0.0	 426.944;
	466	 389.71	 0.0	 33.33	 -33.33	 0.9791	 100.0	 0	 397.21	 382.21	 0.0	 0.0	 0.0	 0.0	 0.0	 0.0	 0.0	 0.0	 0.0	 0.0	 397.208;
	467	 150.0	 0.0	 33.33	 -33.33	 1.0067	 100.0	 0	 300.0	 0.0	 0.0	 0.0	 0.0	 0.0	 0.0	 0.0	 0.0	 0.0	 0.0	 0.0	 300.0;
	468	 279.815	 -6.13	 49.06	 -61.32	 0.9791	 100.0	 1	 398.37	 161.26	 0.0	 0.0	 0.0	 0.0	 0.0	 0.0	 0.0	 0.0	 0.0	 0.0	 398.372;
	469	 148.5	 0.0	 33.33	 -33.33	 0.9967	 100.0	 0	 297.0	 0.0	 0.0	 0.0	 0.0	 0.0	 0.0	 0.0	 0.0	 0.0	 0.0	 0.0	 297.0;
	469	 149.5	 0.0	 33.33	 -33.33	 0.9967	 100.0	 0	 299.0	 0.0	 0.0	 0.0	 0.0	 0.0	 0.0	 0.0	 0.0	 0.0	 0.0	 0.0	 299.0;
	469	 463.885	 0.0	 213.75	 -213.75	 0.9967	 100.0	 1	 789.51	 138.26	 0.0	 0.0	 0.0	 0.0	 0.0	 0.0	 0.0	 0.0	 0.0	 0.0	 789.511;
	470	 946.055	 -10.28	 82.22	 -102.78	 0.9763	 100.0	 1	 1109.15	 782.96	 0.0	 0.0	 0.0	 0.0	 0.0	 0.0	 0.0	 0.0	 0.0	 0.0	 1109.155;
	471	 886.09	 0.0	 33.33	 -33.33	 0.9793	 100.0	 0	 893.59	 878.59	 0.0	 0.0	 0.0	 0.0	 0.0	 0.0	 0.0	 0.0	 0.0	 0.0	 893.593;
	478	 105.66	 0.0	 33.33	 -33.33	 0.99	 100.0	 0	 113.16	 98.16	 0.0	 0.0	 0.0	 0.0	 0.0	 0.0	 0.0	 0.0	 0.0	 0.0	 113.164;
	480	 312.0	 0.0	 561.6	 -561.6	 0.99	 100.0	 1	 624.0	 0.0	 0.0	 0.0	 0.0	 0.0	 0.0	 0.0	 0.0	 0.0	 0.0	 0.0	 623.996;
	488	 149.875	 0.0	 31.25	 -31.25	 0.9552	 100.0	 1	 173.61	 126.14	 0.0	 0.0	 0.0	 0.0	 0.0	 0.0	 0.0	 0.0	 0.0	 0.0	 173.611;
	489	 141.985	 0.0	 137.78	 -137.78	 0.9555	 100.0	 1	 173.37	 110.6	 0.0	 0.0	 0.0	 0.0	 0.0	 0.0	 0.0	 0.0	 0.0	 0.0	 173.374;
	503	 150.0	 0.0	 33.33	 -33.33	 1.01	 100.0	 0	 300.0	 0.0	 0.0	 0.0	 0.0	 0.0	 0.0	 0.0	 0.0	 0.0	 0.0	 0.0	 300.0;
	507	 23.345	 1.59	 15.91	 -12.73	 1.0194	 100.0	 1	 38.25	 8.44	 0.0	 0.0	 0.0	 0.0	 0.0	 0.0	 0.0	 0.0	 0.0	 0.0	 38.249;
	509	 44.5	 -71.4	 41.2	 -184.0	 1.0245	 78.0	 1	 78.0	 11.0	 0.0	 0.0	 0.0	 0.0	 0.0	 0.0	 0.0	 0.0	 0.0	 0.0	 78.0;
	527	 53.625	 -60.75	 52.5	 -174.0	 1.0245	 83.96	 1	 86.25	 21.0	 0.0	 0.0	 0.0	 0.0	 0.0	 0.0	 0.0	 0.0	 0.0	 0.0	 86.25;
	546	 134.36	 62.5	 131.0	 -6.0	 1.0245	 258.66	 1	 268.72	 0.0	 0.0	 0.0	 0.0	 0.0	 0.0	 0.0	 0.0	 0.0	 0.0	 0.0	 268.721;
	558	 15.895	 2.5	 190.0	 -185.0	 1.0226	 100.0	 1	 27.17	 4.62	 0.0	 0.0	 0.0	 0.0	 0.0	 0.0	 0.0	 0.0	 0.0	 0.0	 27.174;
	580	 77.31	 0.0	 33.33	 -33.33	 1.0112	 100.0	 0	 84.81	 69.81	 0.0	 0.0	 0.0	 0.0	 0.0	 0.0	 0.0	 0.0	 0.0	 0.0	 84.808;
...
];

%% generator cost data
%	2	startup	shutdown	n	c(n-1)	...	c0
mpc.gencost = [
	2	 0.0	 0.0	 3	   0.000000	  16.870720	   0.000000;
	2	 0.0	 0.0	 3	   0.000000	  37.447609	   0.000000;
	2	 0.0	 0.0	 3	   0.000000	  27.951591	   0.000000;
	2	 0.0	 0.0	 3	   0.000000	  38.627844	   0.000000;
	2	 0.0	 0.0	 3	   0.000000	  47.334631	   0.000000;
	2	 0.0	 0.0	 3	   0.000000	  63.254181	   0.000000;
	2	 0.0	 0.0	 3	   0.000000	 148.186188	   0.000000;
	2	 0.0	 0.0	 3	   0.000000	  29.455852	   0.000000;
	2	 0.0	 0.0	 3	   0.000000	  25.617606	   0.000000;
	2	 0.0	 0.0	 3	   0.000000	 140.061026	   0.000000;
	2	 0.0	 0.0	 3	   0.000000	  31.075821	   0.000000;
	2	 0.0	 0.0	 3	   0.000000	 119.227899	   0.000000;
	2	 0.0	 0.0	 3	   0.000000	 112.998848	   0.000000;
	2	 0.0	 0.0	 3	   0.000000	  26.346183	   0.000000;
	2	 0.0	 0.0	 3	   0.000000	  38.309089	   0.000000;
	2	 0.0	 0.0	 3	   0.000000	  47.020675	   0.000000;
	2	 0.0	 0.0	 3	   0.000000	  50.179719	   0.000000;
	2	 0.0	 0.0	 3	   0.000000	  38.500994	   0.000000;
	2	 0.0	 0.0	 3	   0.000000	  25.494705	   0.000000;
	2	 0.0	 0.0	 3	   0.000000	  45.144447	   0.000000;
	2	 0.0	 0.0	 3	   0.000000	  38.497346	   0.000000;
	2	 0.0	 0.0	 3	   0.000000	  25.092547	   0.000000;
	2	 0.0	 0.0	 3	   0.000000	  19.854556	   0.000000;
	2	 0.0	 0.0	 3	   0.000000	  42.293198	   0.000000;
	2	 0.0	 0.0	 3	   0.000000	  47.982719	   0.000000;
	2	 0.0	 0.0	 3	   0.000000	  46.784159	   0.000000;
	2	 0.0	 0.0	 3	   0.000000	  91.401716	   0.000000;
	2	 0.0	 0.0	 3	   0.000000	  53.947954	   0.000000;
	2	 0.0	 0.0	 3	   0.000000	  53.603927	   0.000000;
	2	 0.0	 0.0	 3	   0.000000	  24.667060	   0.000000;
	2	 0.0	 0.0	 3	   0.000000	  45.644995	   0.000000;
	2	 0.0	 0.0	 3	   0.000000	  48.274487	   0.000000;
	2	 0.0	 0.0	 3	   0.000000	  26.248433	   0.000000;
	2	 0.0	 0.0	 3	   0.000000	 104.603161	   0.000000;
	2	 0.0	 0.0	 3	   0.000000	  31.571797	   0.000000;
	2	 0.0	 0.0	 3	   0.000000	  29.940708	   0.000000;
	2	 0.0	 0.0	 3	   0.000000	  38.404964	   0.000000;
	2	 0.0	 0.0	 3	   0.000000	  47.428501	   0.000000;
	2	 0.0	 0.0	 3	   0.000000	 129.207487	   0.000000;
	2	 0.0	 0.0	 3	   0.000000	  82.599914	   0.000000;
	2	 0.0	 0.0	 3	   0.000000	 123.783655	   0.000000;
	2	 0.0	 0.0	 3	   0.000000	  41.665175	   0.000000;
	2	 0.0	 0.0	 3	   0.000000	  21.479282	   0.000000;
	2	 0.0	 0.0	 3	   0.000000	 115.267364	   0.000000;
	2	 0.0	 0.0	 3	   0.000000	  60.605816	   0.000000;
	2	 0.0	 0.0	 3	   0.000000	  57.617781	   0.000000;
	2	 0.0	 0.0	 3	   0.000000	  18.834313	   0.000000;
	2	 0.0	 0.0	 3	   0.000000	  43.610763	   0.000000;
	2	 0.0	 0.0	 3	   0.000000	  63.369660	   0.000000;
	2	 0.0	 0.0	 3	   0.000000	  41.807141	   0.000000;
	2	 0.0	 0.0	 3	   0.000000	  39.468185	   0.000000;
	2	 0.0	 0.0	 3	   0.000000	  25.193581	   0.000000;
	2	 0.0	 0.0	 3	   0.000000	  30.327680	   0.000000;
	2	 0.0	 0.0	 3	   0.000000	  40.897872	   0.000000;
	2	 0.0	 0.0	 3	   0.000000	  64.541808	   0.000000;
	2	 0.0	 0.0	 3	   0.000000	  42.475097	   0.000000;
	2	 0.0	 0.0	 3	   0.000000	  36.854121	   0.000000;
	2	 0.0	 0.0	 3	   0.000000	  56.370195	   0.000000;
	2	 0.0	 0.0	 3	   0.000000	  52.626124	   0.000000;
	2	 0.0	 0.0	 3	   0.000000	  58.748096	   0.000000;
	2	 0.0	 0.0	 3	   0.000000	  30.371312	   0.000000;
	2	 0.0	 0.0	 3	   0.000000	  56.541878	   0.000000;
	2	 0.0	 0.0	 3	   0.000000	  55.815483	   0.000000;
	2	 0.0	 0.0	 3	   0.000000	  38.650532	   0.000000;
	2	 0.0	 0.0	 3	   0.000000	  53.065041	   0.000000;
	2	 0.0	 0.0	 3	   0.000000	  60.277391	   0.000000;
	2	 0.0	 0.0	 3	   0.000000	   9.341365	   0.000000;
	2	 0.0	 0.0	 3	   0.000000	  23.948414	   0.000000;
	2	 0.0	 0.0	 3	   0.000000	  41.842237	   0.000000;
	2	 0.0	 0.0	 3	   0.000000	  44.518905	   0.000000;
	2	 0.0	 0.0	 3	   0.000000	  61.037417	   0.000000;
	2	 0.0	 0.0	 3	   0.000000	  58.342192	   0.000000;
	2	 0.0	 0.0	 3	   0.000000	  34.076760	   0.000000;
	2	 0.0	 0.0	 3	   0.000000	  37.695097	   0.000000;
	2	 0.0	 0.0	 3	   0.000000	  43.824321	   0.000000;
	2	 0.0	 0.0	 3	   0.000000	  32.538627	   0.000000;
	2	 0.0	 0.0	 3	   0.000000	  57.839772	   0.000000;
	2	 0.0	 0.0	 3	   0.000000	  56.712628	   0.000000;
	2	 0.0	 0.0	 3	   0.000000	 151.534980	   0.000000;
	2	 0.0	 0.0	 3	   0.000000	  66.282915	   0.000000;
	2	 0.0	 0.0	 3	   0.000000	  21.946275	   0.000000;
	2	 0.0	 0.0	 3	   0.000000	  47.103014	   0.000000;
	2	 0.0	 0.0	 3	   0.000000	  17.168207	   0.000000;
	2	 0.0	 0.0	 3	   0.000000	  31.989186	   0.000000;
	2	 0.0	 0.0	 3	   0.000000	  31.429015	   0.000000;
	2	 0.0	 0.0	 3	   0.000000	  46.886482	   0.000000;
	2	 0.0	 0.0	 3	   0.000000	  36.073587	   0.000000;
	2	 0.0	 0.0	 3	   0.000000	  33.965263	   0.000000;
	2	 0.0	 0.0	 3	   0.000000	  43.579185	   0.000000;
	2	 0.0	 0.0	 3	   0.000000	 157.459001	   0.000000;
	2	 0.0	 0.0	 3	   0.000000	  42.004529	   0.000000;
	2	 0.0	 0.0	 3	   0.000000	  45.844968	   0.000000;
	2	 0.0	 0.0	 3	   0.000000	  32.499600	   0.000000;
	2	 0.0	 0.0	 3	   0.000000	  35.673125	   0.000000;
	2	 0.0	 0.0	 3	   0.000000	  30.979317	   0.000000;
	2	 0.0	 0.0	 3	   0.000000	  26.204723	   0.000000;
	2	 0.0	 0.0	 3	   0.000000	  51.649868	   0.000000;
	2	 0.0	 0.0	 3	   0.000000	 130.160670	   0.000000;
	2	 0.0	 0.0	 3	   0.000000	  39.707358	   0.000000;
	2	 0.0	 0.0	 3	   0.000000	  38.542604	   0.000000;
	2	 0.0	 0.0	 3	   0.000000	  55.940461	   0.000000;
	2	 0.0	 0.0	 3	   0.000000	  65.468351	   0.000000;
	2	 0.0	 0.0	 3	   0.000000	  37.141433	   0.000000;
	2	 0.0	 0.0	 3	   0.000000	  37.446409	   0.000000;
	2	 0.0	 0.0	 3	   0.000000	  52.420239	   0.000000;
	2	 0.0	 0.0	 3	   0.000000	  41.766697	   0.000000;
	2	 0.0	 0.0	 3	   0.000000	  48.479818	   0.000000;
	2	 0.0	 0.0	 3	   0.000000	  29.068664	   0.000000;
	2	 0.0	 0.0	 3	   0.000000	  45.901683	   0.000000;
	2	 0.0	 0.0	 3	   0.000000	  68.349576	   0.000000;
	2	 0.0	 0.0	 3	   0.000000	  48.876089	   0.000000;
	2	 0.0	 0.0	 3	   0.000000	  23.546558	   0.000000;
	2	 0.0	 0.0	 3	   0.000000	  52.749845	   0.000000;
	2	 0.0	 0.0	 3	   0.000000	  11.080571	   0.000000;
	2	 0.0	 0.0	 3	   0.000000	  43.964406	   0.000000;
	2	 0.0	 0.0	 3	   0.000000	  28.477091	   0.000000;
	2	 0.0	 0.0	 3	   0.000000	  54.598077	   0.000000;
	2	 0.0	 0.0	 3	   0.000000	  34.323105	   0.000000;
	2	 0.0	 0.0	 3	   0.000000	  38.170791	   0.000000;
	2	 0.0	 0.0	 3	   0.000000	  48.517027	   0.000000;
	2	 0.0	 0.0	 3	   0.000000	  44.562061	   0.000000;
	2	 0.0	 0.0	 3	   0.000000	  58.868777	   0.000000;
	2	 0.0	 0.0	 3	   0.000000	  49.234681	   0.000000;
	2	 0.0	 0.0	 3	   0.000000	  38.539433	   0.000000;
	2	 0.0	 0.0	 3	   0.000000	  45.756008	   0.000000;
	2	 0.0	 0.0	 3	   0.000000	  35.462833	   0.000000;
	2	 0.0	 0.0	 3	   0.000000	  16.561741	   0.000000;
	2	 0.0	 0.0	 3	   0.000000	  36.250561	   0.000000;
	2	 0.0	 0.0	 3	   0.000000	  62.859271	   0.000000;
	2	 0.0	 0.0	 3	   0.000000	  18.043039	   0.000000;
	2	 0.0	 0.0	 3	   0.000000	  15.838906	   0.000000;
	2	 0.0	 0.0	 3	   0.000000	  36.175759	   0.000000;
	2	 0.0	 0.0	 3	   0.000000	  50.796764	   0.000000;
	2	 0.0	 0.0	 3	   0.000000	  50.865152	   0.000000;
	2	 0.0	 0.0	 3	   0.000000	  56.463676	   0.000000;
	2	 0.0	 0.0	 3	   0.000000	  42.394945	   0.000000;
	2	 0.0	 0.0	 3	   0.000000	  45.370584	   0.000000;
	2	 0.0	 0.0	 3	   0.000000	  45.344952	   0.000000;
	2	 0.0	 0.0	 3	   0.000000	  54.263241	   0.000000;
	2	 0.0	 0.0	 3	   0.000000	  54.196294	   0.000000;
	2	 0.0	 0.0	 3	   0.000000	  37.708537	   0.000000;
	2	 0.0	 0.0	 3	   0.000000	  27.284542	   0.000000;
	2	 0.0	 0.0	 3	   0.000000	  44.102109	   0.000000;
	2	 0.0	 0.0	 3	   0.000000	  33.343855	   0.000000;
	2	 0.0	 0.0	 3	   0.000000	  31.062064	   0.000000;
	2	 0.0	 0.0	 3	   0.000000	  50.370160	   0.000000;
	2	 0.0	 0.0	 3	   0.000000	  26.988878	   0.000000;
	2	 0.0	 0.0	 3	   0.000000	  50.676128	   0.000000;
	2	 0.0	 0.0	 3	   0.000000	  47.506635	   0.000000;
	2	 0.0	 0.0	 3	   0.000000	  55.863741	   0.000000;
	2	 0.0	 0.0	 3	   0.000000	  53.918461	   0.000000;
	2	 0.0	 0.0	 3	   0.000000	  45.989870	   0.000000;
	2	 0.0	 0.0	 3	   0.000000	  20.831916	   0.000000;
	2	 0.0	 0.0	 3	   0.000000	  63.005201	   0.000000;
	2	 0.0	 0.0	 3	   0.000000	  42.809688	   0.000000;
	2	 0.0	 0.0	 3	   0.000000	  26.074967	   0.000000;
	2	 0.0	 0.0	 3	   0.000000	  67.375478	   0.000000;
	2	 0.0	 0.0	 3	   0.000000	 163.422653	   0.000000;
	2	 0.0	 0.0	 3	   0.000000	  46.461740	   0.000000;
	2	 0.0	 0.0	 3	   0.000000	  41.589280	   0.000000;
	2	 0.0	 0.0	 3	   0.000000	 112.489410	   0.000000;
	2	 0.0	 0.0	 3	   0.000000	  25.444024	   0.000000;
	2	 0.0	 0.0	 3	   0.000000	  47.303475	   0.000000;
	2	 0.0	 0.0	 3	   0.000000	  46.896838	   0.000000;
	2	 0.0	 0.0	 3	   0.000000	  44.455345	   0.000000;
	2	 0.0	 0.0	 3	   0.000000	  54.166350	   0.000000;
	2	 0.0	 0.0	 3	   0.000000	  33.789554	   0.000000;
	2	 0.0	 0.0	 3	   0.000000	  19.001171	   0.000000;
	2	 0.0	 0.0	 3	   0.000000	  54.729021	   0.000000;
	2	 0.0	 0.0	 3	   0.000000	  20.495765	   0.000000;
	2	 0.0	 0.0	 3	   0.000000	  52.301326	   0.000000;
	2	 0.0	 0.0	 3	   0.000000	  41.840719	   0.000000;
	2	 0.0	 0.0	 3	   0.000000	  25.468092	   0.000000;
	2	 0.0	 0.0	 3	   0.000000	  37.192731	   0.000000;
	2	 0.0	 0.0	 3	   0.000000	  45.012014	   0.000000;
	2	 0.0	 0.0	 3	   0.000000	  52.952953	   0.000000;
	2	 0.0	 0.0	 3	   0.000000	  35.548248	   0.000000;
	2	 0.0	 0.0	 3	   0.000000	  45.461222	   0.000000;
	2	 0.0	 0.0	 3	   0.000000	  43.798361	   0.000000;
	2	 0.0	 0.0	 3	   0.000000	  48.034416	   0.000000;
	2	 0.0	 0.0	 3	   0.000000	  34.955532	   0.000000;
	2	 0.0	 0.0	 3	   0.000000	  52.723427	   0.000000;
	2	 0.0	 0.0	 3	   0.000000	  36.719491	   0.000000;
	2	 0.0	 0.0	 3	   0.000000	  40.365650	   0.000000;
	2	 0.0	 0.0	 3	   0.000000	  53.122213	   0.000000;
	2	 0.0	 0.0	 3	   0.000000	  55.175422	   0.000000;
	2	 0.0	 0.0	 3	   0.000000	   7.766392	   0.000000;
	2	 0.0	 0.0	 3	   0.000000	  26.682601	   0.000000;
	2	 0.0	 0.0	 3	   0.000000	  26.188843	   0.000000;
	2	 0.0	 0.0	 3	   0.000000	  39.146689	   0.000000;
	2	 0.0	 0.0	 3	   0.000000	  24.054601	   0.000000;
	2	 0.0	 0.0	 3	   0.000000	  37.605923	   0.000000;
	2	 0.0	 0.0	 3	   0.000000	  56.199352	   0.000000;
	2	 0.0	 0.0	 3	   0.000000	  27.215960	   0.000000;
	2	 0.0	 0.0	 3	   0.000000	  42.612495	   0.000000;
	2	 0.0	 0.0	 3	   0.000000	 125.430350	   0.000000;
	2	 0.0	 0.0	 3	   0.000000	  32.292642	   0.000000;
	2	 0.0	 0.0	 3	   0.000000	  54.463340	   0.000000;
	2	 0.0	 0.0	 3	   0.000000	  65.898911	   0.000000;
	2	 0.0	 0.0	 3	   0.000000	  43.435928	   0.000000;
...
];

%% branch data
%	fbus	tbus	r	x	b	rateA	rateB	rateC	ratio	angle	status	angmin	angmax
mpc.branch = [
	1	 2	 2e-05	 0.00021	 0.0	 876.0	 876.0	 876.0	 0.0	 0.0	 1	 -14.109653	 14.109653;
	1	 10	 0.00593	 0.04093	 0.07215	 341.0	 341.0	 341.0	 0.0	 0.0	 1	 -14.109653	 14.109653;
	11	 1	 0.00287	 0.10711	 0.0	 100.0	 100.0	 100.0	 1.00972	 0.0	 1	 -14.109653	 14.109653;
	12	 2	 0.0014	 0.06927	 0.0	 160.0	 160.0	 160.0	 0.99664	 0.0	 1	 -14.109653	 14.109653;
	2	 507	 0.0001	 0.01	 0.0	 83.7	 98.6	 125.55	 0.0	 0.0	 1	 -14.109653	 14.109653;
	3	 4	 2e-05	 0.00021	 0.0	 876.0	 876.0	 876.0	 0.0	 0.0	 1	 -14.109653	 14.109653;
	3	 8	 0.00777	 0.04128	 0.06391	 197.0	 197.0	 197.0	 0.0	 0.0	 1	 -14.109653	 14.109653;
	4	 1027	 0.0001	 0.01	 0.0	 198.78	 238.54	 298.17	 0.0	 0.0	 1	 -14.109653	 14.109653;
	5	 6	 2e-05	 0.00021	 0.0	 876.0	 876.0	 876.0	 0.0	 0.0	 1	 -14.109653	 14.109653;
	5	 9	 0.00488	 0.03362	 0.05961	 341.0	 341.0	 341.0	 0.0	 0.0	 1	 -14.109653	 14.109653;
	26	 5	 0.0014	 0.06831	 0.0	 160.0	 160.0	 160.0	 1.03811	 0.0	 1	 -14.109653	 14.109653;
	6	 217	 0.0001	 0.01	 0.0	 445.51	 534.61	 668.26	 0.0	 0.0	 1	 -14.109653	 14.109653;
	7	 8	 2e-05	 0.00021	 0.0	 876.0	 876.0	 876.0	 0.0	 0.0	 1	 -14.109653	 14.109653;
	7	 10	 0.00455	 0.03157	 0.05531	 231.0	 231.0	 231.0	 0.0	 0.0	 1	 -14.109653	 14.109653;
	46	 7	 0.00152	 0.06749	 0.0	 160.0	 160.0	 160.0	 1.06341	 0.0	 1	 -14.109653	 14.109653;
	9	 10	 2e-05	 0.00021	 0.0	 876.0	 876.0	 876.0	 0.0	 0.0	 1	 -14.109653	 14.109653;
	9	 2095	 0.0001	 0.01	 0.0	 140.51	 168.61	 210.76	 0.0	 0.0	 1	 -14.109653	 14.109653;
	10	 68	 0.00139	 0.06852	 0.0	 160.0	 160.0	 160.0	 1.0224	 0.0	 1	 -14.109653	 14.109653;
	69	 10	 0.00154	 0.06811	 0.0	 160.0	 160.0	 160.0	 1.04321	 0.0	 1	 -14.109653	 14.109653;
	11	 23	 0.03868	 0.10116	 0.0108	 87.61	 113.89	 50.0	 0.0	 0.0	 1	 -14.109653	 14.109653;
	11	 26	 0.00719	 0.02248	 0.00246	 62.0	 62.0	 62.0	 0.0	 0.0	 1	 -14.109653	 14.109653;
	11	 43	 0.01636	 0.04132	 0.0045	 50.0	 50.0	 50.0	 0.0	 0.0	 1	 -14.109653	 14.109653;
	12	 14	 0.00752	 0.02207	 0.00251	 80.22	 104.29	 50.0	 0.0	 0.0	 1	 -14.109653	 14.109653;
	12	 25	 0.00719	 0.02256	 0.00247	 62.0	 62.0	 62.0	 0.0	 0.0	 1	 -14.109653	 14.109653;
	13	 59	 0.02256	 0.04314	 0.004	 49.0	 49.0	 49.0	 0.0	 0.0	 1	 -14.109653	 14.109653;
	14	 245	 0.0001	 0.01	 0.0	 83.7	 98.6	 125.55	 0.0	 0.0	 1	 -14.109653	 14.109653;
	15	 16	 0.00058	 0.00157	 0.00021	 75.0	 75.0	 75.0	 0.0	 0.0	 1	 -14.109653	 14.109653;
	16	 58	 0.00107	 0.00298	 0.0004	 112.72	 146.54	 75.0	 0.0	 0.0	 1	 -14.109653	 14.109653;
	16	 64	 0.00182	 0.00529	 0.00071	 111.39	 144.81	 75.0	 0.0	 0.0	 1	 -14.109653	 14.109653;
	17	 20	 0.00496	 0.0162	 0.00164	 75.0	 75.0	 75.0	 0.0	 0.0	 1	 -14.109653	 14.109653;
	18	 62	 0.00033	 0.00099	 0.00013	 75.0	 75.0	 75.0	 0.0	 0.0	 1	 -14.109653	 14.109653;
	19	 63	 0.00033	 0.00091	 0.00012	 75.0	 75.0	 75.0	 0.0	 0.0	 1	 -14.109653	 14.109653;
	20	 28	 0.00934	 0.0257	 0.00253	 63.0	 63.0	 63.0	 0.0	 0.0	 1	 -14.109653	 14.109653;
	20	 30	 0.01504	 0.04033	 0.00401	 63.0	 63.0	 63.0	 0.0	 0.0	 1	 -14.109653	 14.109653;
	21	 22	 8e-05	 0.00083	 0.0	 438.0	 438.0	 438.0	 0.0	 0.0	 1	 -14.109653	 14.109653;
	21	 44	 0.00512	 0.01669	 0.00168	 114.0	 114.0	 114.0	 0.0	 0.0	 1	 -14.109653	 14.109653;
	22	 46	 0.02826	 0.0924	 0.00933	 99.0	 99.0	 99.0	 0.0	 0.0	 1	 -14.109653	 14.109653;
	24	 46	 0.01669	 0.04364	 0.00566	 106.38	 138.3	 63.0	 0.0	 0.0	 1	 -14.109653	 14.109653;
	24	 271	 0.0001	 0.01	 0.0	 83.7	 98.6	 125.55	 0.0	 0.0	 1	 -14.109653	 14.109653;
	25	 26	 8e-05	 0.00083	 0.0	 438.0	 438.0	 438.0	 0.0	 0.0	 1	 -14.109653	 14.109653;
	25	 38	 0.01595	 0.0414	 0.00404	 50.0	 50.0	 50.0	 0.0	 0.0	 1	 -14.109653	 14.109653;
	26	 37	 0.01595	 0.04132	 0.00403	 50.0	 50.0	 50.0	 0.0	 0.0	 1	 -14.109653	 14.109653;
	26	 41	 0.02926	 0.0514	 0.00489	 39.0	 39.0	 39.0	 0.0	 0.0	 1	 -14.109653	 14.109653;
	27	 28	 0.00554	 0.00959	 0.00095	 47.0	 47.0	 47.0	 0.0	 0.0	 1	 -14.109653	 14.109653;
	28	 64	 0.0057	 0.01479	 0.0015	 63.0	 63.0	 63.0	 0.0	 0.0	 1	 -14.109653	 14.109653;
	29	 30	 0.00017	 0.00041	 6e-05	 75.0	 75.0	 75.0	 0.0	 0.0	 1	 -14.109653	 14.109653;
	30	 65	 8e-05	 0.00025	 2e-05	 75.0	 75.0	 75.0	 0.0	 0.0	 1	 -14.109653	 14.109653;
	31	 32	 8e-05	 0.00083	 0.0	 438.0	 438.0	 438.0	 0.0	 0.0	 1	 -14.109653	 14.109653;
	31	 69	 0.01298	 0.04074	 0.0045	 75.0	 75.0	 75.0	 0.0	 0.0	 1	 -14.109653	 14.109653;
	32	 530	 0.0001	 0.01	 0.0	 83.7	 98.6	 125.55	 0.0	 0.0	 1	 -14.109653	 14.109653;
	33	 34	 0.00165	 0.00537	 0.00054	 75.0	 75.0	 75.0	 0.0	 0.0	 1	 -14.109653	 14.109653;
	34	 54	 0.01926	 0.06198	 0.00647	 103.29	 134.27	 75.0	 0.0	 0.0	 1	 -14.109653	 14.109653;
	34	 68	 0.01041	 0.03388	 0.00346	 114.08	 148.3	 75.0	 0.0	 0.0	 1	 -14.109653	 14.109653;
	35	 37	 0.0005	 0.00107	 0.00014	 29.0	 29.0	 29.0	 0.0	 0.0	 1	 -14.109653	 14.109653;
	36	 38	 0.0005	 0.00116	 0.00014	 29.0	 29.0	 29.0	 0.0	 0.0	 1	 -14.109653	 14.109653;
	37	 64	 0.03174	 0.08347	 0.00816	 50.0	 50.0	 50.0	 0.0	 0.0	 1	 -14.109653	 14.109653;
	38	 65	 0.03174	 0.08347	 0.00816	 50.0	 50.0	 50.0	 0.0	 0.0	 1	 -14.109653	 14.109653;
	39	 66	 0.03826	 0.04818	 0.00455	 83.83	 100.59	 125.74	 0.0	 0.0	 1	 -14.109653	 14.109653;
	39	 1234	 0.0001	 0.01	 0.0	 83.7	 98.6	 125.55	 0.0	 0.0	 1	 -14.109653	 14.109653;
	40	 41	 8e-05	 0.00083	 0.0	 438.0	 438.0	 438.0	 0.0	 0.0	 1	 -14.109653	 14.109653;
	40	 59	 0.04025	 0.07132	 0.00662	 47.0	 47.0	 47.0	 0.0	 0.0	 1	 -14.109653	 14.109653;
	42	 43	 0.00058	 0.00099	 0.0001	 29.0	 29.0	 29.0	 0.0	 0.0	 1	 -14.109653	 14.109653;
	43	 2259	 0.0001	 0.01	 0.0	 83.7	 98.6	 125.55	 0.0	 0.0	 1	 -14.109653	 14.109653;
	44	 45	 8e-05	 0.00083	 0.0	 438.0	 438.0	 438.0	 0.0	 0.0	 1	 -14.109653	 14.109653;
...